
     RDKit          3D

 49 50  0  0  0  0  0  0  0  0999 V2000
    0.8815    0.7704    0.2331 C   0  0  1  0  0  0  0  0  0  0  0  0
    1.8261    0.1224    1.2202 C   0  0  0  0  0  0  0  0  0  0  0  0
    2.0965    0.0042   -0.2473 C   0  0  2  0  0  0  0  0  0  0  0  0
   -0.5028    0.2021    0.0257 C   0  0  0  0  0  0  0  0  0  0  0  0
    3.2224    0.7275   -0.8392 N   0  0  0  0  0  0  0  0  0  0  0  0
   -1.3987    0.0466    1.0969 C   0  0  0  0  0  0  0  0  0  0  0  0
   -0.9570   -0.1595   -1.2527 C   0  0  0  0  0  0  0  0  0  0  0  0
   -2.2417   -0.6714   -1.4534 C   0  0  0  0  0  0  0  0  0  0  0  0
   -2.6859   -0.4624    0.9038 C   0  0  0  0  0  0  0  0  0  0  0  0
   -3.1061   -0.8238   -0.3730 C   0  0  0  0  0  0  0  0  0  0  0  0
   -0.0807    0.4415    0.0992 S   0  0  0  0  0  0  0  0  0  0  0  0
   -0.5312    0.7653    1.4288 O   0  0  0  0  0  0  0  0  0  0  0  0
    0.1297    1.4193   -0.9380 O   0  0  0  0  0  0  0  0  0  0  0  0
    1.2830   -0.3959    0.2172 O   0  0  0  0  0  0  0  0  0  0  0  0
   -1.0830   -0.6798   -0.4589 O   0  0  0  0  0  0  0  0  0  0  0  0
   -1.1548    0.1164    0.3226 C   0  0  2  0  0  0  0  0  0  0  0  0
   -1.9497   -1.1561    0.1423 C   0  0  0  0  0  0  0  0  0  0  0  0
   -1.9620   -0.1198   -0.9378 C   0  0  1  0  0  0  0  0  0  0  0  0
    0.3544    0.0923    0.2589 C   0  0  0  0  0  0  0  0  0  0  0  0
   -3.1888    0.6388   -1.1835 N   0  0  0  0  0  0  0  0  0  0  0  0
    1.0603    0.9942   -0.5544 C   0  0  0  0  0  0  0  0  0  0  0  0
    1.1091   -0.8051    1.0338 C   0  0  0  0  0  0  0  0  0  0  0  0
    2.5058   -0.8154    0.9851 C   0  0  0  0  0  0  0  0  0  0  0  0
    2.4567    0.9905   -0.6064 C   0  0  0  0  0  0  0  0  0  0  0  0
    3.1793    0.0826    0.1626 C   0  0  0  0  0  0  0  0  0  0  0  0
    0.9353    1.8552    0.1680 H   0  0  0  0  0  0  0  0  0  0  0  0
    1.5027   -0.7715    1.7422 H   0  0  0  0  0  0  0  0  0  0  0  0
    2.4485    0.7748    1.8219 H   0  0  0  0  0  0  0  0  0  0  0  0
    1.9191   -0.9729   -0.6936 H   0  0  0  0  0  0  0  0  0  0  0  0
    3.3899    1.6145   -0.3674 H   0  0  0  0  0  0  0  0  0  0  0  0
    4.0835    0.1904   -0.7454 H   0  0  0  0  0  0  0  0  0  0  0  0
   -1.0878    0.3279    2.1000 H   0  0  0  0  0  0  0  0  0  0  0  0
   -0.2958   -0.0380   -2.1086 H   0  0  0  0  0  0  0  0  0  0  0  0
   -2.5655   -0.9449   -2.4540 H   0  0  0  0  0  0  0  0  0  0  0  0
   -3.3578   -0.5727    1.7502 H   0  0  0  0  0  0  0  0  0  0  0  0
   -4.1066   -1.2189   -0.5273 H   0  0  0  0  0  0  0  0  0  0  0  0
    1.7095   -0.3788   -0.6642 H   0  0  0  0  0  0  0  0  0  0  0  0
   -1.4271   -1.1716    0.3159 H   0  0  0  0  0  0  0  0  0  0  0  0
   -1.5622    0.8226    1.0416 H   0  0  0  0  0  0  0  0  0  0  0  0
   -1.4266   -2.0804   -0.0676 H   0  0  0  0  0  0  0  0  0  0  0  0
   -2.8410   -1.2885    0.7442 H   0  0  0  0  0  0  0  0  0  0  0  0
   -1.4205   -0.3872   -1.8429 H   0  0  0  0  0  0  0  0  0  0  0  0
   -3.5784    1.0187   -0.3198 H   0  0  0  0  0  0  0  0  0  0  0  0
   -2.9999    1.4401   -1.7855 H   0  0  0  0  0  0  0  0  0  0  0  0
    0.5109    1.7139   -1.1589 H   0  0  0  0  0  0  0  0  0  0  0  0
    0.5997   -1.5091    1.6879 H   0  0  0  0  0  0  0  0  0  0  0  0
    3.0651   -1.5235    1.5921 H   0  0  0  0  0  0  0  0  0  0  0  0
    2.9772    1.6982   -1.2462 H   0  0  0  0  0  0  0  0  0  0  0  0
    4.2652    0.0769    0.1239 H   0  0  0  0  0  0  0  0  0  0  0  0
  2  1  1  0
  3  1  1  0
  1  4  1  0
  3  5  1  0
  6  4  2  0
  7  4  1  0
  8  7  2  0
  9  6  1  0
 10  9  2  0
  3  2  1  0
  8 10  1  0
 12 11  2  0
 13 11  2  0
 14 11  1  0
 15 11  1  0
 17 16  1  0
 18 16  1  0
 16 19  1  0
 18 20  1  0
 21 19  2  0
 22 19  1  0
 23 22  2  0
 24 21  1  0
 25 24  2  0
 18 17  1  0
 23 25  1  0
  1 26  1  1
  2 27  1  0
  2 28  1  0
  3 29  1  6
  5 30  1  0
  5 31  1  0
  6 32  1  0
  7 33  1  0
  8 34  1  0
  9 35  1  0
 10 36  1  0
 14 37  1  0
 15 38  1  0
 16 39  1  1
 17 40  1  0
 17 41  1  0
 18 42  1  6
 20 43  1  0
 20 44  1  0
 21 45  1  0
 22 46  1  0
 23 47  1  0
 24 48  1  0
 25 49  1  0
M  END
$$$$
