
     RDKit          3D

 49 50  0  0  0  0  0  0  0  0999 V2000
   -1.0652   -0.1858    0.4762 C   0  0  1  0  0  0  0  0  0  0  0  0
   -1.9545    0.9995    0.1753 C   0  0  0  0  0  0  0  0  0  0  0  0
   -1.9768   -0.1899   -0.7336 C   0  0  2  0  0  0  0  0  0  0  0  0
    0.4302   -0.0845    0.2877 C   0  0  0  0  0  0  0  0  0  0  0  0
   -3.1510   -1.0621   -0.7565 N   0  0  0  0  0  0  0  0  0  0  0  0
    1.1314   -1.0393   -0.4684 C   0  0  0  0  0  0  0  0  0  0  0  0
    1.1791    0.9426    0.8854 C   0  0  0  0  0  0  0  0  0  0  0  0
    2.5645    1.0250    0.7209 C   0  0  0  0  0  0  0  0  0  0  0  0
    2.5165   -0.9633   -0.6358 C   0  0  0  0  0  0  0  0  0  0  0  0
    3.2328    0.0717   -0.0420 C   0  0  0  0  0  0  0  0  0  0  0  0
    0.0328    0.2717    0.3682 S   0  0  0  0  0  0  0  0  0  0  0  0
   -0.8566    1.4011    0.4634 O   0  0  0  0  0  0  0  0  0  0  0  0
    1.0394   -0.0427    1.3497 O   0  0  0  0  0  0  0  0  0  0  0  0
   -0.8932   -1.0219    0.1600 O   0  0  0  0  0  0  0  0  0  0  0  0
    0.7866    0.3421   -1.0459 O   0  0  0  0  0  0  0  0  0  0  0  0
   -0.9804    0.6453    0.2219 C   0  0  2  0  0  0  0  0  0  0  0  0
   -1.9489   -0.2179    0.9986 C   0  0  0  0  0  0  0  0  0  0  0  0
   -2.0438   -0.1612   -0.4940 C   0  0  1  0  0  0  0  0  0  0  0  0
    0.4719    0.2444    0.1113 C   0  0  0  0  0  0  0  0  0  0  0  0
   -3.1749    0.5216   -1.1218 N   0  0  0  0  0  0  0  0  0  0  0  0
    1.1009    0.1279   -1.1397 C   0  0  0  0  0  0  0  0  0  0  0  0
    1.2557    0.0068    1.2529 C   0  0  0  0  0  0  0  0  0  0  0  0
    2.6032   -0.3497    1.1507 C   0  0  0  0  0  0  0  0  0  0  0  0
    2.4477   -0.2279   -1.2486 C   0  0  0  0  0  0  0  0  0  0  0  0
    3.1985   -0.4685   -0.1016 C   0  0  0  0  0  0  0  0  0  0  0  0
   -1.3709   -0.8086    1.3145 H   0  0  0  0  0  0  0  0  0  0  0  0
   -1.5042    1.9089   -0.2072 H   0  0  0  0  0  0  0  0  0  0  0  0
   -2.7953    1.1744    0.8359 H   0  0  0  0  0  0  0  0  0  0  0  0
   -1.5047   -0.0629   -1.7064 H   0  0  0  0  0  0  0  0  0  0  0  0
   -3.5919   -1.1204    0.1602 H   0  0  0  0  0  0  0  0  0  0  0  0
   -3.8608   -0.6883   -1.3855 H   0  0  0  0  0  0  0  0  0  0  0  0
    0.5850   -1.8582   -0.9333 H   0  0  0  0  0  0  0  0  0  0  0  0
    0.6739    1.6917    1.4910 H   0  0  0  0  0  0  0  0  0  0  0  0
    3.1193    1.8323    1.1916 H   0  0  0  0  0  0  0  0  0  0  0  0
    3.0326   -1.7152   -1.2267 H   0  0  0  0  0  0  0  0  0  0  0  0
    4.3101    0.1325   -0.1700 H   0  0  0  0  0  0  0  0  0  0  0  0
   -1.6948   -0.7304   -0.3208 H   0  0  0  0  0  0  0  0  0  0  0  0
    1.5860   -0.2199   -0.9746 H   0  0  0  0  0  0  0  0  0  0  0  0
   -1.1467    1.7189    0.2817 H   0  0  0  0  0  0  0  0  0  0  0  0
   -1.5884   -1.1404    1.4406 H   0  0  0  0  0  0  0  0  0  0  0  0
   -2.7001    0.2848    1.5954 H   0  0  0  0  0  0  0  0  0  0  0  0
   -1.7129   -1.0484   -1.0316 H   0  0  0  0  0  0  0  0  0  0  0  0
   -3.4733    1.3300   -0.5776 H   0  0  0  0  0  0  0  0  0  0  0  0
   -3.9839   -0.0977   -1.1691 H   0  0  0  0  0  0  0  0  0  0  0  0
    0.5282    0.3195   -2.0456 H   0  0  0  0  0  0  0  0  0  0  0  0
    0.8079    0.1023    2.2396 H   0  0  0  0  0  0  0  0  0  0  0  0
    3.1858   -0.5312    2.0499 H   0  0  0  0  0  0  0  0  0  0  0  0
    2.9073   -0.3140   -2.2295 H   0  0  0  0  0  0  0  0  0  0  0  0
    4.2462   -0.7444   -0.1836 H   0  0  0  0  0  0  0  0  0  0  0  0
  2  1  1  0
  3  1  1  0
  1  4  1  0
  3  5  1  0
  6  4  2  0
  7  4  1  0
  8  7  2  0
  9  6  1  0
 10  9  2  0
  3  2  1  0
  8 10  1  0
 12 11  2  0
 13 11  2  0
 14 11  1  0
 15 11  1  0
 17 16  1  0
 18 16  1  0
 16 19  1  0
 18 20  1  0
 21 19  2  0
 22 19  1  0
 23 22  2  0
 24 21  1  0
 25 24  2  0
 18 17  1  0
 23 25  1  0
  1 26  1  1
  2 27  1  0
  2 28  1  0
  3 29  1  6
  5 30  1  0
  5 31  1  0
  6 32  1  0
  7 33  1  0
  8 34  1  0
  9 35  1  0
 10 36  1  0
 14 37  1  0
 15 38  1  0
 16 39  1  1
 17 40  1  0
 17 41  1  0
 18 42  1  6
 20 43  1  0
 20 44  1  0
 21 45  1  0
 22 46  1  0
 23 47  1  0
 24 48  1  0
 25 49  1  0
M  END
$$$$
