
     RDKit          3D

 49 50  0  0  0  0  0  0  0  0999 V2000
   -0.9865   -0.6265   -0.4162 C   0  0  1  0  0  0  0  0  0  0  0  0
   -2.0785   -0.5986    0.6281 C   0  0  0  0  0  0  0  0  0  0  0  0
   -2.0190    0.4800   -0.4072 C   0  0  2  0  0  0  0  0  0  0  0  0
    0.4429   -0.3276   -0.0297 C   0  0  0  0  0  0  0  0  0  0  0  0
   -3.0436    0.5110   -1.4507 N   0  0  0  0  0  0  0  0  0  0  0  0
    1.0868   -1.0359    0.9977 C   0  0  0  0  0  0  0  0  0  0  0  0
    1.1934    0.6457   -0.7107 C   0  0  0  0  0  0  0  0  0  0  0  0
    2.5203    0.9171   -0.3664 C   0  0  0  0  0  0  0  0  0  0  0  0
    2.4132   -0.7693    1.3480 C   0  0  0  0  0  0  0  0  0  0  0  0
    3.1286    0.2108    0.6671 C   0  0  0  0  0  0  0  0  0  0  0  0
    0.0184    0.3961    0.2199 S   0  0  0  0  0  0  0  0  0  0  0  0
    0.6251    1.5175   -0.4522 O   0  0  0  0  0  0  0  0  0  0  0  0
   -0.5485    0.4631    1.5428 O   0  0  0  0  0  0  0  0  0  0  0  0
   -1.1254   -0.2027   -0.7322 O   0  0  0  0  0  0  0  0  0  0  0  0
    1.0983   -0.7904    0.1898 O   0  0  0  0  0  0  0  0  0  0  0  0
   -1.0475    0.3925    0.4282 C   0  0  2  0  0  0  0  0  0  0  0  0
   -1.8353   -0.6260    1.2167 C   0  0  0  0  0  0  0  0  0  0  0  0
   -2.0971   -0.4608   -0.2519 C   0  0  1  0  0  0  0  0  0  0  0  0
    0.4162    0.2082    0.0662 C   0  0  0  0  0  0  0  0  0  0  0  0
   -3.3593    0.1350   -0.6908 N   0  0  0  0  0  0  0  0  0  0  0  0
    1.1685    1.3164   -0.3700 C   0  0  0  0  0  0  0  0  0  0  0  0
    1.0919   -1.0244    0.1330 C   0  0  0  0  0  0  0  0  0  0  0  0
    2.4430   -1.1441   -0.2106 C   0  0  0  0  0  0  0  0  0  0  0  0
    2.5194    1.2057   -0.7140 C   0  0  0  0  0  0  0  0  0  0  0  0
    3.1572   -0.0271   -0.6328 C   0  0  0  0  0  0  0  0  0  0  0  0
   -1.0984   -1.3821   -1.1915 H   0  0  0  0  0  0  0  0  0  0  0  0
   -2.8600   -1.3463    0.5526 H   0  0  0  0  0  0  0  0  0  0  0  0
   -1.8261   -0.3281    1.6464 H   0  0  0  0  0  0  0  0  0  0  0  0
   -1.6989    1.4603   -0.0579 H   0  0  0  0  0  0  0  0  0  0  0  0
   -2.7068    1.0196   -2.2680 H   0  0  0  0  0  0  0  0  0  0  0  0
   -3.8690    1.0144   -1.1267 H   0  0  0  0  0  0  0  0  0  0  0  0
    0.5423   -1.8081    1.5377 H   0  0  0  0  0  0  0  0  0  0  0  0
    0.7361    1.1987   -1.5290 H   0  0  0  0  0  0  0  0  0  0  0  0
    3.0775    1.6758   -0.9097 H   0  0  0  0  0  0  0  0  0  0  0  0
    2.8850   -1.3297    2.1503 H   0  0  0  0  0  0  0  0  0  0  0  0
    4.1607    0.4186    0.9358 H   0  0  0  0  0  0  0  0  0  0  0  0
   -1.7246   -0.7309   -0.1652 H   0  0  0  0  0  0  0  0  0  0  0  0
    1.6568   -0.6528   -0.6029 H   0  0  0  0  0  0  0  0  0  0  0  0
   -1.3282    1.4245    0.6402 H   0  0  0  0  0  0  0  0  0  0  0  0
   -2.5748   -0.2571    1.9196 H   0  0  0  0  0  0  0  0  0  0  0  0
   -1.3648   -1.5428    1.5482 H   0  0  0  0  0  0  0  0  0  0  0  0
   -1.7486   -1.2682   -0.8944 H   0  0  0  0  0  0  0  0  0  0  0  0
   -3.6561    0.8877   -0.0708 H   0  0  0  0  0  0  0  0  0  0  0  0
   -3.2499    0.5565   -1.6133 H   0  0  0  0  0  0  0  0  0  0  0  0
    0.6918    2.2922   -0.4447 H   0  0  0  0  0  0  0  0  0  0  0  0
    0.5649   -1.9208    0.4516 H   0  0  0  0  0  0  0  0  0  0  0  0
    2.9329   -2.1128   -0.1481 H   0  0  0  0  0  0  0  0  0  0  0  0
    3.0689    2.0839   -1.0450 H   0  0  0  0  0  0  0  0  0  0  0  0
    4.2066   -0.1186   -0.8998 H   0  0  0  0  0  0  0  0  0  0  0  0
  2  1  1  0
  3  1  1  0
  1  4  1  0
  3  5  1  0
  6  4  2  0
  7  4  1  0
  8  7  2  0
  9  6  1  0
 10  9  2  0
  3  2  1  0
  8 10  1  0
 12 11  2  0
 13 11  2  0
 14 11  1  0
 15 11  1  0
 17 16  1  0
 18 16  1  0
 16 19  1  0
 18 20  1  0
 21 19  2  0
 22 19  1  0
 23 22  2  0
 24 21  1  0
 25 24  2  0
 18 17  1  0
 23 25  1  0
  1 26  1  6
  2 27  1  0
  2 28  1  0
  3 29  1  1
  5 30  1  0
  5 31  1  0
  6 32  1  0
  7 33  1  0
  8 34  1  0
  9 35  1  0
 10 36  1  0
 14 37  1  0
 15 38  1  0
 16 39  1  1
 17 40  1  0
 17 41  1  0
 18 42  1  6
 20 43  1  0
 20 44  1  0
 21 45  1  0
 22 46  1  0
 23 47  1  0
 24 48  1  0
 25 49  1  0
M  END
$$$$
