
     RDKit          3D

 49 50  0  0  0  0  0  0  0  0999 V2000
   -0.9412   -0.5029    0.5366 C   0  0  1  0  0  0  0  0  0  0  0  0
   -2.0035    0.5572    0.7206 C   0  0  0  0  0  0  0  0  0  0  0  0
   -2.0251   -0.3050   -0.5027 C   0  0  2  0  0  0  0  0  0  0  0  0
    0.4824   -0.1040    0.2258 C   0  0  0  0  0  0  0  0  0  0  0  0
   -3.0757   -1.3105   -0.6609 N   0  0  0  0  0  0  0  0  0  0  0  0
    1.1598   -0.6345   -0.8849 C   0  0  0  0  0  0  0  0  0  0  0  0
    1.1920    0.7838    1.0514 C   0  0  0  0  0  0  0  0  0  0  0  0
    2.5136    1.1417    0.7712 C   0  0  0  0  0  0  0  0  0  0  0  0
    2.4811   -0.2811   -1.1707 C   0  0  0  0  0  0  0  0  0  0  0  0
    3.1573    0.6096   -0.3423 C   0  0  0  0  0  0  0  0  0  0  0  0
   -0.0100    0.4540   -0.0380 S   0  0  0  0  0  0  0  0  0  0  0  0
    0.3234    1.0348   -1.3136 O   0  0  0  0  0  0  0  0  0  0  0  0
   -0.3731    1.2237    1.1244 O   0  0  0  0  0  0  0  0  0  0  0  0
   -1.1865   -0.6137   -0.2606 O   0  0  0  0  0  0  0  0  0  0  0  0
    1.2112   -0.5095    0.3547 O   0  0  0  0  0  0  0  0  0  0  0  0
   -1.0413    0.0189    0.6745 C   0  0  2  0  0  0  0  0  0  0  0  0
   -1.9837   -1.0504    0.1716 C   0  0  0  0  0  0  0  0  0  0  0  0
   -2.0487    0.3255   -0.4130 C   0  0  1  0  0  0  0  0  0  0  0  0
    0.4308   -0.0488    0.3423 C   0  0  0  0  0  0  0  0  0  0  0  0
   -3.2029    1.1680   -0.1014 N   0  0  0  0  0  0  0  0  0  0  0  0
    1.1932   -1.1943    0.6255 C   0  0  0  0  0  0  0  0  0  0  0  0
    1.0992    1.0450   -0.2326 C   0  0  0  0  0  0  0  0  0  0  0  0
    2.4637    0.9923   -0.5301 C   0  0  0  0  0  0  0  0  0  0  0  0
    2.5579   -1.2540    0.3304 C   0  0  0  0  0  0  0  0  0  0  0  0
    3.1926   -0.1597   -0.2498 C   0  0  0  0  0  0  0  0  0  0  0  0
   -1.0331   -1.3834    1.1690 H   0  0  0  0  0  0  0  0  0  0  0  0
   -2.7446    0.3949    1.4938 H   0  0  0  0  0  0  0  0  0  0  0  0
   -1.7318    1.5990    0.5897 H   0  0  0  0  0  0  0  0  0  0  0  0
   -1.7345    0.1764   -1.4350 H   0  0  0  0  0  0  0  0  0  0  0  0
   -3.3188   -1.7423    0.2296 H   0  0  0  0  0  0  0  0  0  0  0  0
   -3.9327   -0.8793   -1.0067 H   0  0  0  0  0  0  0  0  0  0  0  0
    0.6458   -1.3376   -1.5384 H   0  0  0  0  0  0  0  0  0  0  0  0
    0.7063    1.2033    1.9298 H   0  0  0  0  0  0  0  0  0  0  0  0
    3.0384    1.8334    1.4247 H   0  0  0  0  0  0  0  0  0  0  0  0
    2.9791   -0.7043   -2.0389 H   0  0  0  0  0  0  0  0  0  0  0  0
    4.1851    0.8854   -0.5619 H   0  0  0  0  0  0  0  0  0  0  0  0
   -1.5914   -0.7840    0.6150 H   0  0  0  0  0  0  0  0  0  0  0  0
    1.6263   -0.8053   -0.4819 H   0  0  0  0  0  0  0  0  0  0  0  0
   -1.2658    0.4137    1.6638 H   0  0  0  0  0  0  0  0  0  0  0  0
   -1.5940   -1.8422   -0.4572 H   0  0  0  0  0  0  0  0  0  0  0  0
   -2.7780   -1.3687    0.8369 H   0  0  0  0  0  0  0  0  0  0  0  0
   -1.6716    0.4317   -1.4286 H   0  0  0  0  0  0  0  0  0  0  0  0
   -2.9715    2.1531   -0.2249 H   0  0  0  0  0  0  0  0  0  0  0  0
   -3.9710    0.9751   -0.7437 H   0  0  0  0  0  0  0  0  0  0  0  0
    0.7139   -2.0560    1.0855 H   0  0  0  0  0  0  0  0  0  0  0  0
    0.5457    1.9561   -0.4499 H   0  0  0  0  0  0  0  0  0  0  0  0
    2.9548    1.8521   -0.9774 H   0  0  0  0  0  0  0  0  0  0  0  0
    3.1226   -2.1544    0.5570 H   0  0  0  0  0  0  0  0  0  0  0  0
    4.2539   -0.2031   -0.4790 H   0  0  0  0  0  0  0  0  0  0  0  0
  2  1  1  0
  3  1  1  0
  1  4  1  0
  3  5  1  0
  6  4  2  0
  7  4  1  0
  8  7  2  0
  9  6  1  0
 10  9  2  0
  3  2  1  0
  8 10  1  0
 12 11  2  0
 13 11  2  0
 14 11  1  0
 15 11  1  0
 17 16  1  0
 18 16  1  0
 16 19  1  0
 18 20  1  0
 21 19  2  0
 22 19  1  0
 23 22  2  0
 24 21  1  0
 25 24  2  0
 18 17  1  0
 23 25  1  0
  1 26  1  1
  2 27  1  0
  2 28  1  0
  3 29  1  6
  5 30  1  0
  5 31  1  0
  6 32  1  0
  7 33  1  0
  8 34  1  0
  9 35  1  0
 10 36  1  0
 14 37  1  0
 15 38  1  0
 16 39  1  1
 17 40  1  0
 17 41  1  0
 18 42  1  6
 20 43  1  0
 20 44  1  0
 21 45  1  0
 22 46  1  0
 23 47  1  0
 24 48  1  0
 25 49  1  0
M  END
$$$$
