
     RDKit          3D

 49 50  0  0  0  0  0  0  0  0999 V2000
    1.0374   -0.2894    0.5746 C   0  0  1  0  0  0  0  0  0  0  0  0
    1.8415   -1.3030   -0.2071 C   0  0  0  0  0  0  0  0  0  0  0  0
    2.1096    0.1570   -0.3974 C   0  0  2  0  0  0  0  0  0  0  0  0
   -0.4202   -0.0649    0.2474 C   0  0  0  0  0  0  0  0  0  0  0  0
    3.3615    0.7269    0.1009 N   0  0  0  0  0  0  0  0  0  0  0  0
   -0.9145    1.2175   -0.0445 C   0  0  0  0  0  0  0  0  0  0  0  0
   -1.3419   -1.1253    0.2561 C   0  0  0  0  0  0  0  0  0  0  0  0
   -2.6940   -0.9191   -0.0306 C   0  0  0  0  0  0  0  0  0  0  0  0
   -2.2651    1.4302   -0.3331 C   0  0  0  0  0  0  0  0  0  0  0  0
   -3.1548    0.3602   -0.3272 C   0  0  0  0  0  0  0  0  0  0  0  0
   -0.0641   -0.4507   -0.0312 S   0  0  0  0  0  0  0  0  0  0  0  0
    0.0785   -1.0679   -1.3252 O   0  0  0  0  0  0  0  0  0  0  0  0
   -0.3956   -1.1728    1.1707 O   0  0  0  0  0  0  0  0  0  0  0  0
    1.2769    0.3698    0.2881 O   0  0  0  0  0  0  0  0  0  0  0  0
   -1.1208    0.7428   -0.2119 O   0  0  0  0  0  0  0  0  0  0  0  0
   -1.0024   -0.7256    0.1885 C   0  0  2  0  0  0  0  0  0  0  0  0
   -2.0836   -0.0052   -0.5833 C   0  0  0  0  0  0  0  0  0  0  0  0
   -2.0105    0.1486    0.9033 C   0  0  1  0  0  0  0  0  0  0  0  0
    0.4368   -0.2808    0.0775 C   0  0  0  0  0  0  0  0  0  0  0  0
   -3.0430   -0.4789    1.7273 N   0  0  0  0  0  0  0  0  0  0  0  0
    1.0696   -0.1514   -1.1704 C   0  0  0  0  0  0  0  0  0  0  0  0
    1.2064   -0.0126    1.2222 C   0  0  0  0  0  0  0  0  0  0  0  0
    2.5425    0.3857    1.1263 C   0  0  0  0  0  0  0  0  0  0  0  0
    2.4054    0.2463   -1.2730 C   0  0  0  0  0  0  0  0  0  0  0  0
    3.1412    0.5173   -0.1230 C   0  0  0  0  0  0  0  0  0  0  0  0
    1.2766   -0.2159    1.6335 H   0  0  0  0  0  0  0  0  0  0  0  0
    2.5675   -1.9000    0.3320 H   0  0  0  0  0  0  0  0  0  0  0  0
    1.3692   -1.8306   -1.0284 H   0  0  0  0  0  0  0  0  0  0  0  0
    1.7848    0.5750   -1.3489 H   0  0  0  0  0  0  0  0  0  0  0  0
    3.6281    0.3207    0.9968 H   0  0  0  0  0  0  0  0  0  0  0  0
    3.2580    1.7280    0.2660 H   0  0  0  0  0  0  0  0  0  0  0  0
   -0.2341    2.0665   -0.0485 H   0  0  0  0  0  0  0  0  0  0  0  0
   -0.9997   -2.1311    0.4908 H   0  0  0  0  0  0  0  0  0  0  0  0
   -3.3846   -1.7582   -0.0214 H   0  0  0  0  0  0  0  0  0  0  0  0
   -2.6197    2.4322   -0.5602 H   0  0  0  0  0  0  0  0  0  0  0  0
   -4.2056    0.5231   -0.5509 H   0  0  0  0  0  0  0  0  0  0  0  0
    1.2895    0.5387    1.2532 H   0  0  0  0  0  0  0  0  0  0  0  0
   -1.0645    1.0402   -1.1437 H   0  0  0  0  0  0  0  0  0  0  0  0
   -1.1384   -1.8006    0.2933 H   0  0  0  0  0  0  0  0  0  0  0  0
   -2.8815   -0.6064   -1.0036 H   0  0  0  0  0  0  0  0  0  0  0  0
   -1.8158    0.8533   -1.1877 H   0  0  0  0  0  0  0  0  0  0  0  0
   -1.6665    1.1151    1.2668 H   0  0  0  0  0  0  0  0  0  0  0  0
   -3.8723    0.1128    1.7733 H   0  0  0  0  0  0  0  0  0  0  0  0
   -2.7184   -0.5855    2.6882 H   0  0  0  0  0  0  0  0  0  0  0  0
    0.5110   -0.3669   -2.0788 H   0  0  0  0  0  0  0  0  0  0  0  0
    0.7561   -0.1195    2.2066 H   0  0  0  0  0  0  0  0  0  0  0  0
    3.1139    0.5887    2.0283 H   0  0  0  0  0  0  0  0  0  0  0  0
    2.8689    0.3406   -2.2513 H   0  0  0  0  0  0  0  0  0  0  0  0
    4.1804    0.8251   -0.2004 H   0  0  0  0  0  0  0  0  0  0  0  0
  2  1  1  0
  3  1  1  0
  1  4  1  0
  3  5  1  0
  6  4  2  0
  7  4  1  0
  8  7  2  0
  9  6  1  0
 10  9  2  0
  3  2  1  0
  8 10  1  0
 12 11  2  0
 13 11  2  0
 14 11  1  0
 15 11  1  0
 17 16  1  0
 18 16  1  0
 16 19  1  0
 18 20  1  0
 21 19  2  0
 22 19  1  0
 23 22  2  0
 24 21  1  0
 25 24  2  0
 18 17  1  0
 23 25  1  0
  1 26  1  1
  2 27  1  0
  2 28  1  0
  3 29  1  6
  5 30  1  0
  5 31  1  0
  6 32  1  0
  7 33  1  0
  8 34  1  0
  9 35  1  0
 10 36  1  0
 14 37  1  0
 15 38  1  0
 16 39  1  1
 17 40  1  0
 17 41  1  0
 18 42  1  6
 20 43  1  0
 20 44  1  0
 21 45  1  0
 22 46  1  0
 23 47  1  0
 24 48  1  0
 25 49  1  0
M  END
$$$$
