
     RDKit          3D

 51 54  0  0  0  0  0  0  0  0999 V2000
    3.3897   -0.8004    0.0732 N   0  0  0  0  0  0  0  0  0  0  0  0
    3.9902   -1.7475    0.8861 C   0  0  0  0  0  0  0  0  0  0  0  0
    4.0249    0.3508   -0.3888 C   0  0  0  0  0  0  0  0  0  0  0  0
    5.4623    0.4831   -0.0834 C   0  0  0  0  0  0  0  0  0  0  0  0
    5.3179   -1.5740    1.1546 N   0  0  0  0  0  0  0  0  0  0  0  0
    6.0705   -0.5001    0.6886 C   0  0  0  0  0  0  0  0  0  0  0  0
    1.9647   -0.9493   -0.2118 C   0  0  0  0  0  0  0  0  0  0  0  0
   -4.4146   -0.6853   -0.6057 C   0  0  0  0  0  0  0  0  0  0  0  0
   -0.3596   -0.2819    0.6621 N   0  0  0  0  0  0  0  0  0  0  0  0
    3.4012   -2.7110    1.3736 O   0  0  0  0  0  0  0  0  0  0  0  0
    3.4568    1.2448   -1.0120 O   0  0  0  0  0  0  0  0  0  0  0  0
   -5.5858    0.2373   -0.4834 C   0  0  0  0  0  0  0  0  0  0  0  0
   -3.0922   -0.3238    0.0620 C   0  0  0  0  0  0  0  0  0  0  0  0
   -4.5444   -1.7148   -1.2681 O   0  0  0  0  0  0  0  0  0  0  0  0
    1.0966   -0.2693    0.8691 C   0  0  0  0  0  0  0  0  0  0  0  0
   -6.8589   -0.2704   -0.7925 C   0  0  0  0  0  0  0  0  0  0  0  0
   -5.4589    1.5782   -0.0943 C   0  0  0  0  0  0  0  0  0  0  0  0
   -2.1633    0.3095   -0.9756 C   0  0  0  0  0  0  0  0  0  0  0  0
   -2.4377   -1.5619    0.7083 C   0  0  0  0  0  0  0  0  0  0  0  0
   -0.7973    0.6585   -0.3745 C   0  0  0  0  0  0  0  0  0  0  0  0
   -0.9221   -1.6185    0.4960 C   0  0  0  0  0  0  0  0  0  0  0  0
   -7.8451    1.8684   -0.3041 C   0  0  0  0  0  0  0  0  0  0  0  0
    6.2044    1.5731   -0.5491 C   0  0  0  0  0  0  0  0  0  0  0  0
   -6.5929    2.3918   -0.0029 C   0  0  0  0  0  0  0  0  0  0  0  0
   -7.9888    0.5451   -0.6999 C   0  0  0  0  0  0  0  0  0  0  0  0
   -8.9264    2.6531   -0.2154 F   0  0  0  0  0  0  0  0  0  0  0  0
    7.4259   -0.4074    1.0045 C   0  0  0  0  0  0  0  0  0  0  0  0
    7.5612    1.6681   -0.2366 C   0  0  0  0  0  0  0  0  0  0  0  0
    8.1702    0.6792    0.5387 C   0  0  0  0  0  0  0  0  0  0  0  0
    5.7390   -2.2852    1.7384 H   0  0  0  0  0  0  0  0  0  0  0  0
    1.7252   -2.0171   -0.2713 H   0  0  0  0  0  0  0  0  0  0  0  0
    1.7583   -0.5209   -1.1984 H   0  0  0  0  0  0  0  0  0  0  0  0
   -3.2735    0.3905    0.8730 H   0  0  0  0  0  0  0  0  0  0  0  0
    1.3037   -0.7484    1.8352 H   0  0  0  0  0  0  0  0  0  0  0  0
    1.4232    0.7707    1.0021 H   0  0  0  0  0  0  0  0  0  0  0  0
   -6.9748   -1.3067   -1.1067 H   0  0  0  0  0  0  0  0  0  0  0  0
   -4.4934    2.0216    0.1290 H   0  0  0  0  0  0  0  0  0  0  0  0
   -2.0233   -0.3866   -1.8141 H   0  0  0  0  0  0  0  0  0  0  0  0
   -2.6149    1.2115   -1.4054 H   0  0  0  0  0  0  0  0  0  0  0  0
   -2.8749   -2.5008    0.3497 H   0  0  0  0  0  0  0  0  0  0  0  0
   -2.6490   -1.5336    1.7860 H   0  0  0  0  0  0  0  0  0  0  0  0
   -0.8527    1.6559    0.0781 H   0  0  0  0  0  0  0  0  0  0  0  0
   -0.0810    0.7286   -1.2008 H   0  0  0  0  0  0  0  0  0  0  0  0
   -0.6928   -2.0276   -0.4961 H   0  0  0  0  0  0  0  0  0  0  0  0
   -0.5026   -2.3127    1.2345 H   0  0  0  0  0  0  0  0  0  0  0  0
    5.7301    2.3449   -1.1516 H   0  0  0  0  0  0  0  0  0  0  0  0
   -6.5065    3.4320    0.2967 H   0  0  0  0  0  0  0  0  0  0  0  0
   -8.9742    0.1558   -0.9360 H   0  0  0  0  0  0  0  0  0  0  0  0
    7.9141   -1.1675    1.6083 H   0  0  0  0  0  0  0  0  0  0  0  0
    8.1432    2.5135   -0.5968 H   0  0  0  0  0  0  0  0  0  0  0  0
    9.2279    0.7567    0.7812 H   0  0  0  0  0  0  0  0  0  0  0  0
  2  1  1  0
  3  1  1  0
  4  3  1  0
  5  2  1  0
  6  4  2  0
  7  1  1  0
  8 13  1  0
  9 15  1  0
 10  2  2  0
 11  3  2  0
 12  8  1  0
 13 19  1  0
 14  8  2  0
 15  7  1  0
 16 12  2  0
 17 12  1  0
 18 20  1  0
 19 21  1  0
 20  9  1  0
 21  9  1  0
 22 24  1  0
 23  4  1  0
 24 17  2  0
 25 16  1  0
 26 22  1  0
 27  6  1  0
 28 23  2  0
 29 28  1  0
  5  6  1  0
 18 13  1  0
 29 27  2  0
 25 22  2  0
  5 30  1  0
  7 31  1  0
  7 32  1  0
 13 33  1  0
 15 34  1  0
 15 35  1  0
 16 36  1  0
 17 37  1  0
 18 38  1  0
 18 39  1  0
 19 40  1  0
 19 41  1  0
 20 42  1  0
 20 43  1  0
 21 44  1  0
 21 45  1  0
 23 46  1  0
 24 47  1  0
 25 48  1  0
 27 49  1  0
 28 50  1  0
 29 51  1  0
M  END
$$$$
