
     RDKit          3D

 51 54  0  0  0  0  0  0  0  0999 V2000
   -2.6435    0.9588   -0.5750 N   0  0  0  0  0  0  0  0  0  0  0  0
   -3.5842    0.0188   -0.9635 C   0  0  0  0  0  0  0  0  0  0  0  0
   -2.1416    1.0785    0.7176 C   0  0  0  0  0  0  0  0  0  0  0  0
   -2.6377    0.1086    1.7142 C   0  0  0  0  0  0  0  0  0  0  0  0
   -4.0104   -0.8559   -0.0078 N   0  0  0  0  0  0  0  0  0  0  0  0
   -3.5568   -0.8505    1.3088 C   0  0  0  0  0  0  0  0  0  0  0  0
   -2.1367    1.8684   -1.6009 C   0  0  0  0  0  0  0  0  0  0  0  0
    3.6516   -0.8021   -0.8239 C   0  0  0  0  0  0  0  0  0  0  0  0
   -0.0152    0.5054   -2.0743 N   0  0  0  0  0  0  0  0  0  0  0  0
   -4.0431   -0.0689   -2.1022 O   0  0  0  0  0  0  0  0  0  0  0  0
   -1.3316    1.9321    1.0751 O   0  0  0  0  0  0  0  0  0  0  0  0
    3.2777   -0.5697    0.5940 C   0  0  0  0  0  0  0  0  0  0  0  0
    2.8632   -0.1857   -1.9784 C   0  0  0  0  0  0  0  0  0  0  0  0
    4.6247   -1.5273   -1.0378 O   0  0  0  0  0  0  0  0  0  0  0  0
   -1.2083    1.1801   -2.6304 C   0  0  0  0  0  0  0  0  0  0  0  0
    4.3098   -0.3077    1.5067 C   0  0  0  0  0  0  0  0  0  0  0  0
    1.9610   -0.6759    1.0447 C   0  0  0  0  0  0  0  0  0  0  0  0
    1.7698   -1.1250   -2.4799 C   0  0  0  0  0  0  0  0  0  0  0  0
    2.4009    1.2614   -1.7777 C   0  0  0  0  0  0  0  0  0  0  0  0
    0.6055   -0.3522   -3.0884 C   0  0  0  0  0  0  0  0  0  0  0  0
    0.9172    1.4452   -1.4364 C   0  0  0  0  0  0  0  0  0  0  0  0
    2.7034   -0.2070    3.2921 C   0  0  0  0  0  0  0  0  0  0  0  0
   -2.1933    0.1421    3.0404 C   0  0  0  0  0  0  0  0  0  0  0  0
    1.6770   -0.4909    2.3994 C   0  0  0  0  0  0  0  0  0  0  0  0
    4.0190   -0.1175    2.8587 C   0  0  0  0  0  0  0  0  0  0  0  0
    2.4171   -0.0276    4.5901 F   0  0  0  0  0  0  0  0  0  0  0  0
   -4.0273   -1.8006    2.2160 C   0  0  0  0  0  0  0  0  0  0  0  0
   -2.6566   -0.8086    3.9483 C   0  0  0  0  0  0  0  0  0  0  0  0
   -3.5680   -1.7817    3.5344 C   0  0  0  0  0  0  0  0  0  0  0  0
   -4.6845   -1.5425   -0.3183 H   0  0  0  0  0  0  0  0  0  0  0  0
   -2.9983    2.2813   -2.1409 H   0  0  0  0  0  0  0  0  0  0  0  0
   -1.6232    2.7194   -1.1404 H   0  0  0  0  0  0  0  0  0  0  0  0
    3.6108   -0.1150   -2.7861 H   0  0  0  0  0  0  0  0  0  0  0  0
   -0.9007    1.9230   -3.3780 H   0  0  0  0  0  0  0  0  0  0  0  0
   -1.8072    0.4373   -3.1724 H   0  0  0  0  0  0  0  0  0  0  0  0
    5.3403   -0.2595    1.1633 H   0  0  0  0  0  0  0  0  0  0  0  0
    1.1459   -0.9150    0.3719 H   0  0  0  0  0  0  0  0  0  0  0  0
    2.1929   -1.8021   -3.2364 H   0  0  0  0  0  0  0  0  0  0  0  0
    1.4032   -1.7808   -1.6791 H   0  0  0  0  0  0  0  0  0  0  0  0
    3.0184    1.7771   -1.0324 H   0  0  0  0  0  0  0  0  0  0  0  0
    2.5771    1.7944   -2.7233 H   0  0  0  0  0  0  0  0  0  0  0  0
   -0.1253   -1.0841   -3.4547 H   0  0  0  0  0  0  0  0  0  0  0  0
    0.9438    0.2325   -3.9582 H   0  0  0  0  0  0  0  0  0  0  0  0
    0.6654    2.4874   -1.6793 H   0  0  0  0  0  0  0  0  0  0  0  0
    0.7896    1.3600   -0.3532 H   0  0  0  0  0  0  0  0  0  0  0  0
   -1.4845    0.9018    3.3653 H   0  0  0  0  0  0  0  0  0  0  0  0
    0.6589   -0.5736    2.7636 H   0  0  0  0  0  0  0  0  0  0  0  0
    4.8055    0.0896    3.5739 H   0  0  0  0  0  0  0  0  0  0  0  0
   -4.7425   -2.5597    1.9129 H   0  0  0  0  0  0  0  0  0  0  0  0
   -2.3085   -0.7897    4.9758 H   0  0  0  0  0  0  0  0  0  0  0  0
   -3.9211   -2.5263    4.2439 H   0  0  0  0  0  0  0  0  0  0  0  0
  2  1  1  0
  3  1  1  0
  4  3  1  0
  5  2  1  0
  6  4  2  0
  7  1  1  0
  8 13  1  0
  9 15  1  0
 10  2  2  0
 11  3  2  0
 12  8  1  0
 13 19  1  0
 14  8  2  0
 15  7  1  0
 16 12  2  0
 17 12  1  0
 18 20  1  0
 19 21  1  0
 20  9  1  0
 21  9  1  0
 22 24  1  0
 23  4  1  0
 24 17  2  0
 25 16  1  0
 26 22  1  0
 27  6  1  0
 28 23  2  0
 29 28  1  0
  5  6  1  0
 18 13  1  0
 29 27  2  0
 25 22  2  0
  5 30  1  0
  7 31  1  0
  7 32  1  0
 13 33  1  0
 15 34  1  0
 15 35  1  0
 16 36  1  0
 17 37  1  0
 18 38  1  0
 18 39  1  0
 19 40  1  0
 19 41  1  0
 20 42  1  0
 20 43  1  0
 21 44  1  0
 21 45  1  0
 23 46  1  0
 24 47  1  0
 25 48  1  0
 27 49  1  0
 28 50  1  0
 29 51  1  0
M  END
$$$$
