
     RDKit          3D

 51 54  0  0  0  0  0  0  0  0999 V2000
    3.2558    0.9634    1.2765 N   0  0  0  0  0  0  0  0  0  0  0  0
    3.8286    2.0297    0.6028 C   0  0  0  0  0  0  0  0  0  0  0  0
    3.6687   -0.3597    1.1351 C   0  0  0  0  0  0  0  0  0  0  0  0
    4.6751   -0.6322    0.0904 C   0  0  0  0  0  0  0  0  0  0  0  0
    4.7830    1.7323   -0.3275 N   0  0  0  0  0  0  0  0  0  0  0  0
    5.2063    0.4394   -0.6170 C   0  0  0  0  0  0  0  0  0  0  0  0
    2.1925    1.2621    2.2334 C   0  0  0  0  0  0  0  0  0  0  0  0
   -3.3326   -0.7975   -0.8243 C   0  0  0  0  0  0  0  0  0  0  0  0
    0.3065    0.7673    0.5826 N   0  0  0  0  0  0  0  0  0  0  0  0
    3.5409    3.2098    0.8051 O   0  0  0  0  0  0  0  0  0  0  0  0
    3.2750   -1.2914    1.8342 O   0  0  0  0  0  0  0  0  0  0  0  0
   -4.8245   -0.7328   -0.7091 C   0  0  0  0  0  0  0  0  0  0  0  0
   -2.4649   -0.3940    0.3671 C   0  0  0  0  0  0  0  0  0  0  0  0
   -2.8442   -1.1587   -1.8939 O   0  0  0  0  0  0  0  0  0  0  0  0
    0.8767    1.7179    1.5576 C   0  0  0  0  0  0  0  0  0  0  0  0
   -5.4778   -0.0552    0.3301 C   0  0  0  0  0  0  0  0  0  0  0  0
   -5.5905   -1.3702   -1.6998 C   0  0  0  0  0  0  0  0  0  0  0  0
   -2.1602    1.1109    0.3099 C   0  0  0  0  0  0  0  0  0  0  0  0
   -1.1770   -1.2331    0.4213 C   0  0  0  0  0  0  0  0  0  0  0  0
   -0.7557    1.3783   -0.2289 C   0  0  0  0  0  0  0  0  0  0  0  0
   -0.0917   -0.5025    1.2102 C   0  0  0  0  0  0  0  0  0  0  0  0
   -7.6151   -0.6705   -0.6061 C   0  0  0  0  0  0  0  0  0  0  0  0
    5.1001   -1.9362   -0.1842 C   0  0  0  0  0  0  0  0  0  0  0  0
   -6.9858   -1.3406   -1.6465 C   0  0  0  0  0  0  0  0  0  0  0  0
   -6.8753   -0.0275    0.3799 C   0  0  0  0  0  0  0  0  0  0  0  0
   -8.9526   -0.6381   -0.5528 F   0  0  0  0  0  0  0  0  0  0  0  0
    6.1673    0.2236   -1.6050 C   0  0  0  0  0  0  0  0  0  0  0  0
    6.0593   -2.1567   -1.1738 C   0  0  0  0  0  0  0  0  0  0  0  0
    6.5917   -1.0780   -1.8826 C   0  0  0  0  0  0  0  0  0  0  0  0
    5.1705    2.5256   -0.8206 H   0  0  0  0  0  0  0  0  0  0  0  0
    2.5448    2.0710    2.8857 H   0  0  0  0  0  0  0  0  0  0  0  0
    1.9989    0.4006    2.8811 H   0  0  0  0  0  0  0  0  0  0  0  0
   -3.0194   -0.6097    1.2881 H   0  0  0  0  0  0  0  0  0  0  0  0
    0.1401    1.9470    2.3385 H   0  0  0  0  0  0  0  0  0  0  0  0
    1.0801    2.6656    1.0450 H   0  0  0  0  0  0  0  0  0  0  0  0
   -4.9299    0.4712    1.1053 H   0  0  0  0  0  0  0  0  0  0  0  0
   -5.1011   -1.8943   -2.5197 H   0  0  0  0  0  0  0  0  0  0  0  0
   -2.2442    1.5341    1.3193 H   0  0  0  0  0  0  0  0  0  0  0  0
   -2.8920    1.6440   -0.3086 H   0  0  0  0  0  0  0  0  0  0  0  0
   -1.3939   -2.1994    0.8933 H   0  0  0  0  0  0  0  0  0  0  0  0
   -0.7972   -1.4676   -0.5810 H   0  0  0  0  0  0  0  0  0  0  0  0
   -0.6818    0.9713   -1.2457 H   0  0  0  0  0  0  0  0  0  0  0  0
   -0.6033    2.4584   -0.3438 H   0  0  0  0  0  0  0  0  0  0  0  0
   -0.4651   -0.3364    2.2294 H   0  0  0  0  0  0  0  0  0  0  0  0
    0.7799   -1.1575    1.2888 H   0  0  0  0  0  0  0  0  0  0  0  0
    4.6856   -2.7769    0.3680 H   0  0  0  0  0  0  0  0  0  0  0  0
   -7.5799   -1.8330   -2.4099 H   0  0  0  0  0  0  0  0  0  0  0  0
   -7.3920    0.4958    1.1789 H   0  0  0  0  0  0  0  0  0  0  0  0
    6.5911    1.0530   -2.1646 H   0  0  0  0  0  0  0  0  0  0  0  0
    6.3907   -3.1695   -1.3920 H   0  0  0  0  0  0  0  0  0  0  0  0
    7.3389   -1.2529   -2.6535 H   0  0  0  0  0  0  0  0  0  0  0  0
  2  1  1  0
  3  1  1  0
  4  3  1  0
  5  2  1  0
  6  4  2  0
  7  1  1  0
  8 13  1  0
  9 15  1  0
 10  2  2  0
 11  3  2  0
 12  8  1  0
 13 19  1  0
 14  8  2  0
 15  7  1  0
 16 12  2  0
 17 12  1  0
 18 20  1  0
 19 21  1  0
 20  9  1  0
 21  9  1  0
 22 24  1  0
 23  4  1  0
 24 17  2  0
 25 16  1  0
 26 22  1  0
 27  6  1  0
 28 23  2  0
 29 28  1  0
  5  6  1  0
 18 13  1  0
 29 27  2  0
 25 22  2  0
  5 30  1  0
  7 31  1  0
  7 32  1  0
 13 33  1  0
 15 34  1  0
 15 35  1  0
 16 36  1  0
 17 37  1  0
 18 38  1  0
 18 39  1  0
 19 40  1  0
 19 41  1  0
 20 42  1  0
 20 43  1  0
 21 44  1  0
 21 45  1  0
 23 46  1  0
 24 47  1  0
 25 48  1  0
 27 49  1  0
 28 50  1  0
 29 51  1  0
M  END
$$$$
