
     RDKit          3D

 51 54  0  0  0  0  0  0  0  0999 V2000
    3.3999   -0.1869    0.6824 N   0  0  0  0  0  0  0  0  0  0  0  0
    3.6645    1.1394    0.9837 C   0  0  0  0  0  0  0  0  0  0  0  0
    4.3027   -1.0412    0.0529 C   0  0  0  0  0  0  0  0  0  0  0  0
    5.6603   -0.5134   -0.1837 C   0  0  0  0  0  0  0  0  0  0  0  0
    4.9302    1.5867    0.7334 N   0  0  0  0  0  0  0  0  0  0  0  0
    5.9334    0.8023    0.1721 C   0  0  0  0  0  0  0  0  0  0  0  0
    2.0458   -0.6796    0.9281 C   0  0  0  0  0  0  0  0  0  0  0  0
   -4.3015   -0.1981   -0.6633 C   0  0  0  0  0  0  0  0  0  0  0  0
   -0.2867   -0.8233   -0.0623 N   0  0  0  0  0  0  0  0  0  0  0  0
    2.8333    1.9203    1.4457 O   0  0  0  0  0  0  0  0  0  0  0  0
    4.0307   -2.1805   -0.3172 O   0  0  0  0  0  0  0  0  0  0  0  0
   -5.5577   -0.0202    0.1355 C   0  0  0  0  0  0  0  0  0  0  0  0
   -3.0069    0.4837   -0.2119 C   0  0  0  0  0  0  0  0  0  0  0  0
   -4.3433   -0.9118   -1.6654 O   0  0  0  0  0  0  0  0  0  0  0  0
    1.1065   -0.3748   -0.2575 C   0  0  0  0  0  0  0  0  0  0  0  0
   -6.6614   -0.8299   -0.1841 C   0  0  0  0  0  0  0  0  0  0  0  0
   -5.6776    0.9169    1.1714 C   0  0  0  0  0  0  0  0  0  0  0  0
   -1.9704    0.5152   -1.3507 C   0  0  0  0  0  0  0  0  0  0  0  0
   -2.4490   -0.2307    1.0284 C   0  0  0  0  0  0  0  0  0  0  0  0
   -1.0655   -0.7153   -1.3085 C   0  0  0  0  0  0  0  0  0  0  0  0
   -0.9240   -0.1598    1.0835 C   0  0  0  0  0  0  0  0  0  0  0  0
   -7.9572    0.2200    1.5487 C   0  0  0  0  0  0  0  0  0  0  0  0
    6.6563   -1.3088   -0.7590 C   0  0  0  0  0  0  0  0  0  0  0  0
   -6.8794    1.0337    1.8779 C   0  0  0  0  0  0  0  0  0  0  0  0
   -7.8599   -0.7106    0.5233 C   0  0  0  0  0  0  0  0  0  0  0  0
   -9.1044    0.3378    2.2289 F   0  0  0  0  0  0  0  0  0  0  0  0
    7.2030    1.3393   -0.0413 C   0  0  0  0  0  0  0  0  0  0  0  0
    7.9282   -0.7756   -0.9724 C   0  0  0  0  0  0  0  0  0  0  0  0
    8.2004    0.5462   -0.6137 C   0  0  0  0  0  0  0  0  0  0  0  0
    5.1055    2.5535    0.9745 H   0  0  0  0  0  0  0  0  0  0  0  0
    2.0759   -1.7611    1.1067 H   0  0  0  0  0  0  0  0  0  0  0  0
    1.6748   -0.2117    1.8467 H   0  0  0  0  0  0  0  0  0  0  0  0
   -3.2355    1.5313    0.0147 H   0  0  0  0  0  0  0  0  0  0  0  0
    1.5246   -0.8837   -1.1362 H   0  0  0  0  0  0  0  0  0  0  0  0
    1.1273    0.6990   -0.4858 H   0  0  0  0  0  0  0  0  0  0  0  0
   -6.5916   -1.5615   -0.9880 H   0  0  0  0  0  0  0  0  0  0  0  0
   -4.8606    1.5741    1.4502 H   0  0  0  0  0  0  0  0  0  0  0  0
   -2.4553    0.5893   -2.3311 H   0  0  0  0  0  0  0  0  0  0  0  0
   -1.3515    1.4171   -1.2521 H   0  0  0  0  0  0  0  0  0  0  0  0
   -2.7644   -1.2826    1.0496 H   0  0  0  0  0  0  0  0  0  0  0  0
   -2.8619    0.2263    1.9354 H   0  0  0  0  0  0  0  0  0  0  0  0
   -1.6813   -1.6191   -1.3954 H   0  0  0  0  0  0  0  0  0  0  0  0
   -0.4166   -0.7229   -2.1930 H   0  0  0  0  0  0  0  0  0  0  0  0
   -0.6287    0.8965    1.1422 H   0  0  0  0  0  0  0  0  0  0  0  0
   -0.5899   -0.6418    2.0093 H   0  0  0  0  0  0  0  0  0  0  0  0
    6.4442   -2.3382   -1.0404 H   0  0  0  0  0  0  0  0  0  0  0  0
   -6.9824    1.7564    2.6819 H   0  0  0  0  0  0  0  0  0  0  0  0
   -8.7124   -1.3364    0.2784 H   0  0  0  0  0  0  0  0  0  0  0  0
    7.4303    2.3665    0.2303 H   0  0  0  0  0  0  0  0  0  0  0  0
    8.7063   -1.3906   -1.4192 H   0  0  0  0  0  0  0  0  0  0  0  0
    9.1927    0.9589   -0.7823 H   0  0  0  0  0  0  0  0  0  0  0  0
  2  1  1  0
  3  1  1  0
  4  3  1  0
  5  2  1  0
  6  4  2  0
  7  1  1  0
  8 13  1  0
  9 15  1  0
 10  2  2  0
 11  3  2  0
 12  8  1  0
 13 19  1  0
 14  8  2  0
 15  7  1  0
 16 12  2  0
 17 12  1  0
 18 20  1  0
 19 21  1  0
 20  9  1  0
 21  9  1  0
 22 24  1  0
 23  4  1  0
 24 17  2  0
 25 16  1  0
 26 22  1  0
 27  6  1  0
 28 23  2  0
 29 28  1  0
  5  6  1  0
 18 13  1  0
 29 27  2  0
 25 22  2  0
  5 30  1  0
  7 31  1  0
  7 32  1  0
 13 33  1  0
 15 34  1  0
 15 35  1  0
 16 36  1  0
 17 37  1  0
 18 38  1  0
 18 39  1  0
 19 40  1  0
 19 41  1  0
 20 42  1  0
 20 43  1  0
 21 44  1  0
 21 45  1  0
 23 46  1  0
 24 47  1  0
 25 48  1  0
 27 49  1  0
 28 50  1  0
 29 51  1  0
M  END
$$$$
