
     RDKit          3D

 29 32  0  0  0  0  0  0  0  0999 V2000
    3.1242   -1.0594   -0.1785 N   0  0  0  0  0  0  0  0  0  0  0  0
    2.9154   -0.7458   -1.4617 C   0  0  0  0  0  0  0  0  0  0  0  0
    4.0185   -0.4033    0.6120 C   0  0  0  0  0  0  0  0  0  0  0  0
    4.7324    0.6374    0.0312 C   0  0  0  0  0  0  0  0  0  0  0  0
    3.6180    0.2718   -2.0225 N   0  0  0  0  0  0  0  0  0  0  0  0
    4.5146    0.9570   -1.2881 C   0  0  0  0  0  0  0  0  0  0  0  0
    2.3749   -2.1194    0.5194 C   0  0  0  0  0  0  0  0  0  0  0  0
   -3.6359   -1.2060   -0.1736 C   0  0  0  0  0  0  0  0  0  0  0  0
    0.2772   -0.7753    0.3691 N   0  0  0  0  0  0  0  0  0  0  0  0
    2.0811   -1.3710   -2.1741 O   0  0  0  0  0  0  0  0  0  0  0  0
    4.1984   -0.7197    1.8227 O   0  0  0  0  0  0  0  0  0  0  0  0
   -4.7013   -0.2391   -0.1783 C   0  0  0  0  0  0  0  0  0  0  0  0
   -2.5620   -1.1231    0.8614 C   0  0  0  0  0  0  0  0  0  0  0  0
   -3.5365   -2.1465   -0.9987 O   0  0  0  0  0  0  0  0  0  0  0  0
    1.2275   -1.4538    1.1860 C   0  0  0  0  0  0  0  0  0  0  0  0
   -5.6789   -0.3418   -1.1516 C   0  0  0  0  0  0  0  0  0  0  0  0
   -4.7354    0.7698    0.7691 C   0  0  0  0  0  0  0  0  0  0  0  0
   -1.5753   -2.2363    0.5825 C   0  0  0  0  0  0  0  0  0  0  0  0
   -1.9241    0.2247    0.8864 C   0  0  0  0  0  0  0  0  0  0  0  0
   -0.5473   -1.6697   -0.3950 C   0  0  0  0  0  0  0  0  0  0  0  0
   -0.4488    0.2256    1.0563 C   0  0  0  0  0  0  0  0  0  0  0  0
   -6.7608    1.5391   -0.2927 C   0  0  0  0  0  0  0  0  0  0  0  0
    5.6296    1.3006    0.8408 C   0  0  0  0  0  0  0  0  0  0  0  0
   -5.7928    1.6623    0.6904 C   0  0  0  0  0  0  0  0  0  0  0  0
   -6.7344    0.5361   -1.2423 C   0  0  0  0  0  0  0  0  0  0  0  0
   -7.7782    2.4581   -0.3057 F   0  0  0  0  0  0  0  0  0  0  0  0
    5.2262    1.9886   -1.8254 C   0  0  0  0  0  0  0  0  0  0  0  0
    6.3329    2.3465    0.2433 C   0  0  0  0  0  0  0  0  0  0  0  0
    6.1405    2.6926   -1.0665 C   0  0  0  0  0  0  0  0  0  0  0  0
  2  1  1  0
  3  1  1  0
  4  3  1  0
  5  2  1  0
  6  4  2  0
  7  1  1  0
  8 13  1  0
  9 15  1  0
 10  2  2  0
 11  3  2  0
 12  8  1  0
 13 19  1  0
 14  8  2  0
 15  7  1  0
 16 12  2  0
 17 12  1  0
 18 20  1  0
 19 21  1  0
 20  9  1  0
 21  9  1  0
 22 24  1  0
 23  4  1  0
 24 17  2  0
 25 16  1  0
 26 22  1  0
 27  6  1  0
 28 23  2  0
 29 28  1  0
  5  6  1  0
 18 13  1  0
 29 27  2  0
 25 22  2  0
M  END
