
     RDKit          3D

 52 54  0  0  0  0  0  0  0  0999 V2000
    1.4443   -2.0197   -1.0074 C   0  0  0  0  0  0  0  0  0  0  0  0
    1.5385   -2.9279   -2.0655 C   0  0  0  0  0  0  0  0  0  0  0  0
   -0.8230   -2.6843   -0.6304 C   0  0  0  0  0  0  0  0  0  0  0  0
    0.2716   -1.9298   -0.3397 N   0  0  0  0  0  0  0  0  0  0  0  0
   -0.7177   -3.6642   -1.6076 N   0  0  0  0  0  0  0  0  0  0  0  0
    0.4400   -3.7417   -2.3550 C   0  0  0  0  0  0  0  0  0  0  0  0
   -1.7546    1.4852    0.5362 C   0  0  0  0  0  0  0  0  0  0  0  0
   -1.4107    1.7086    1.8193 N   0  0  0  0  0  0  0  0  0  0  0  0
   -1.8955    2.6097   -0.1225 O   0  0  0  0  0  0  0  0  0  0  0  0
   -1.9402    0.1561   -0.0567 C   0  0  0  0  0  0  0  0  0  0  0  0
   -2.0670   -2.4013    0.2416 C   0  0  0  0  0  0  0  0  0  0  0  0
   -1.3400    3.0223    1.9610 N   0  0  0  0  0  0  0  0  0  0  0  0
    2.5668   -1.1441   -0.5900 C   0  0  0  0  0  0  0  0  0  0  0  0
   -1.9670   -1.0214    0.7730 N   0  0  0  0  0  0  0  0  0  0  0  0
   -1.6456    3.5467    0.7591 C   0  0  0  0  0  0  0  0  0  0  0  0
    2.6998   -3.0385   -2.8255 O   0  0  0  0  0  0  0  0  0  0  0  0
    2.3973   -0.2385    0.5168 N   0  0  0  0  0  0  0  0  0  0  0  0
    0.5353   -4.5552   -3.3164 O   0  0  0  0  0  0  0  0  0  0  0  0
   -2.0677    0.0606   -1.3066 O   0  0  0  0  0  0  0  0  0  0  0  0
    3.6722   -1.1930   -1.1990 O   0  0  0  0  0  0  0  0  0  0  0  0
   -1.8019   -4.6179   -1.9031 C   0  0  0  0  0  0  0  0  0  0  0  0
    3.4491    0.6655    0.9775 C   0  0  0  0  0  0  0  0  0  0  0  0
    2.3272    4.6923   -0.0595 C   0  0  0  0  0  0  0  0  0  0  0  0
    3.0847    2.0802    0.6279 C   0  0  0  0  0  0  0  0  0  0  0  0
    1.9662    5.9561   -0.3892 F   0  0  0  0  0  0  0  0  0  0  0  0
    3.0324    3.9053   -0.9745 C   0  0  0  0  0  0  0  0  0  0  0  0
    1.9849    4.1721    1.1921 C   0  0  0  0  0  0  0  0  0  0  0  0
    3.4070    2.6013   -0.6352 C   0  0  0  0  0  0  0  0  0  0  0  0
    2.3539    2.8680    1.5331 C   0  0  0  0  0  0  0  0  0  0  0  0
   -3.4206   -2.5106   -0.5011 C   0  0  0  0  0  0  0  0  0  0  0  0
   -2.0582   -3.3721    1.4418 C   0  0  0  0  0  0  0  0  0  0  0  0
   -1.6890    5.0073    0.4713 C   0  0  0  0  0  0  0  0  0  0  0  0
   -1.8806   -0.8808    1.8059 H   0  0  0  0  0  0  0  0  0  0  0  0
    1.4534   -0.1352    0.9588 H   0  0  0  0  0  0  0  0  0  0  0  0
   -2.2437   -5.0221   -0.9772 H   0  0  0  0  0  0  0  0  0  0  0  0
   -1.4342   -5.5162   -2.4397 H   0  0  0  0  0  0  0  0  0  0  0  0
   -2.5700   -4.1392   -2.5427 H   0  0  0  0  0  0  0  0  0  0  0  0
    3.5596    0.5592    2.0784 H   0  0  0  0  0  0  0  0  0  0  0  0
    4.4332    0.4031    0.5326 H   0  0  0  0  0  0  0  0  0  0  0  0
    3.2873    4.3032   -1.9484 H   0  0  0  0  0  0  0  0  0  0  0  0
    1.4271    4.7760    1.8961 H   0  0  0  0  0  0  0  0  0  0  0  0
    3.9444    1.9969   -1.3558 H   0  0  0  0  0  0  0  0  0  0  0  0
    2.0690    2.4722    2.5002 H   0  0  0  0  0  0  0  0  0  0  0  0
   -3.8249   -3.5420   -0.5057 H   0  0  0  0  0  0  0  0  0  0  0  0
   -3.3376   -2.1431   -1.5448 H   0  0  0  0  0  0  0  0  0  0  0  0
   -4.1881   -1.8930    0.0132 H   0  0  0  0  0  0  0  0  0  0  0  0
   -2.9110   -3.1525    2.1216 H   0  0  0  0  0  0  0  0  0  0  0  0
   -2.1366   -4.4323    1.1298 H   0  0  0  0  0  0  0  0  0  0  0  0
   -1.1170   -3.2571    2.0201 H   0  0  0  0  0  0  0  0  0  0  0  0
   -2.3189    5.5173    1.2290 H   0  0  0  0  0  0  0  0  0  0  0  0
   -0.6618    5.4250    0.5060 H   0  0  0  0  0  0  0  0  0  0  0  0
   -2.1221    5.1840   -0.5349 H   0  0  0  0  0  0  0  0  0  0  0  0
  2  1  2  0
  3  4  2  0
  4  1  1  0
  5  6  1  0
  6  2  1  0
  7 10  1  0
  8  7  2  0
  9  7  1  0
 10 14  1  0
 11  3  1  0
 12  8  1  0
 13  1  1  0
 14 11  1  0
 15  9  1  0
 16  2  1  0
 17 13  1  0
 18  6  2  0
 19 10  2  0
 20 13  2  0
 21  5  1  0
 22 17  1  0
 23 26  2  0
 24 22  1  0
 25 23  1  0
 26 28  1  0
 27 29  2  0
 28 24  2  0
 29 24  1  0
 30 11  1  0
 31 11  1  0
 32 15  1  0
  5  3  1  0
 27 23  1  0
 12 15  2  0
 14 33  1  0
 17 34  1  0
 21 35  1  0
 21 36  1  0
 21 37  1  0
 22 38  1  0
 22 39  1  0
 26 40  1  0
 27 41  1  0
 28 42  1  0
 29 43  1  0
 30 44  1  0
 30 45  1  0
 30 46  1  0
 31 47  1  0
 31 48  1  0
 31 49  1  0
 32 50  1  0
 32 51  1  0
 32 52  1  0
M  CHG  1  16  -1
M  END
$$$$
