
     RDKit          3D

 52 54  0  0  0  0  0  0  0  0999 V2000
   -0.2929   -0.7419    1.4028 C   0  0  0  0  0  0  0  0  0  0  0  0
   -1.2507   -1.7120    1.6943 C   0  0  0  0  0  0  0  0  0  0  0  0
    0.9946   -2.3586    0.2013 C   0  0  0  0  0  0  0  0  0  0  0  0
    0.7782   -1.0924    0.6558 N   0  0  0  0  0  0  0  0  0  0  0  0
    0.1164   -3.3638    0.5837 N   0  0  0  0  0  0  0  0  0  0  0  0
   -1.0255   -3.0252    1.2779 C   0  0  0  0  0  0  0  0  0  0  0  0
    2.2417    0.8261   -2.6354 C   0  0  0  0  0  0  0  0  0  0  0  0
    3.4130    1.4141   -2.3245 N   0  0  0  0  0  0  0  0  0  0  0  0
    1.5308    1.5784   -3.4412 O   0  0  0  0  0  0  0  0  0  0  0  0
    1.8077   -0.4837   -2.1328 C   0  0  0  0  0  0  0  0  0  0  0  0
    2.2650   -2.5491   -0.6596 C   0  0  0  0  0  0  0  0  0  0  0  0
    3.4273    2.5745   -2.9620 N   0  0  0  0  0  0  0  0  0  0  0  0
   -0.4338    0.6682    1.8173 C   0  0  0  0  0  0  0  0  0  0  0  0
    2.6486   -1.2422   -1.2417 N   0  0  0  0  0  0  0  0  0  0  0  0
    2.2662    2.6453   -3.6398 C   0  0  0  0  0  0  0  0  0  0  0  0
   -2.4292   -1.3876    2.3611 O   0  0  0  0  0  0  0  0  0  0  0  0
   -1.0899    1.0231    3.0441 N   0  0  0  0  0  0  0  0  0  0  0  0
   -1.8992   -3.8958    1.5488 O   0  0  0  0  0  0  0  0  0  0  0  0
    0.6795   -0.9258   -2.4787 O   0  0  0  0  0  0  0  0  0  0  0  0
    0.0699    1.5696    1.0931 O   0  0  0  0  0  0  0  0  0  0  0  0
    0.3258   -4.7843    0.2452 C   0  0  0  0  0  0  0  0  0  0  0  0
   -1.5058    2.3926    3.3364 C   0  0  0  0  0  0  0  0  0  0  0  0
   -4.8627    3.4076    0.8301 C   0  0  0  0  0  0  0  0  0  0  0  0
   -2.6789    2.7704    2.4741 C   0  0  0  0  0  0  0  0  0  0  0  0
   -5.9180    3.7163    0.0367 F   0  0  0  0  0  0  0  0  0  0  0  0
   -3.6014    3.9441    0.5561 C   0  0  0  0  0  0  0  0  0  0  0  0
   -5.0351    2.5501    1.9207 C   0  0  0  0  0  0  0  0  0  0  0  0
   -2.5113    3.6256    1.3722 C   0  0  0  0  0  0  0  0  0  0  0  0
   -3.9474    2.2290    2.7388 C   0  0  0  0  0  0  0  0  0  0  0  0
    3.4189   -3.0131    0.2553 C   0  0  0  0  0  0  0  0  0  0  0  0
    2.1032   -3.5412   -1.8371 C   0  0  0  0  0  0  0  0  0  0  0  0
    1.8539    3.8054   -4.4797 C   0  0  0  0  0  0  0  0  0  0  0  0
    3.5745   -0.8268   -0.9882 H   0  0  0  0  0  0  0  0  0  0  0  0
   -1.2408    0.2945    3.7771 H   0  0  0  0  0  0  0  0  0  0  0  0
   -0.2525   -5.4622    0.9077 H   0  0  0  0  0  0  0  0  0  0  0  0
    1.3730   -5.0878    0.4073 H   0  0  0  0  0  0  0  0  0  0  0  0
    0.0022   -4.9815   -0.7973 H   0  0  0  0  0  0  0  0  0  0  0  0
   -1.8029    2.4673    4.4053 H   0  0  0  0  0  0  0  0  0  0  0  0
   -0.6509    3.0877    3.1872 H   0  0  0  0  0  0  0  0  0  0  0  0
   -3.4665    4.6047   -0.2906 H   0  0  0  0  0  0  0  0  0  0  0  0
   -6.0105    2.1309    2.1311 H   0  0  0  0  0  0  0  0  0  0  0  0
   -1.5387    4.0426    1.1429 H   0  0  0  0  0  0  0  0  0  0  0  0
   -4.0911    1.5565    3.5755 H   0  0  0  0  0  0  0  0  0  0  0  0
    3.5947   -2.2662    1.0597 H   0  0  0  0  0  0  0  0  0  0  0  0
    3.2132   -3.9863    0.7389 H   0  0  0  0  0  0  0  0  0  0  0  0
    4.3575   -3.1157   -0.3314 H   0  0  0  0  0  0  0  0  0  0  0  0
    1.0920   -3.4657   -2.2887 H   0  0  0  0  0  0  0  0  0  0  0  0
    2.8455   -3.3131   -2.6328 H   0  0  0  0  0  0  0  0  0  0  0  0
    2.2991   -4.5917   -1.5446 H   0  0  0  0  0  0  0  0  0  0  0  0
    1.1452    4.4410   -3.9083 H   0  0  0  0  0  0  0  0  0  0  0  0
    2.7427    4.4086   -4.7619 H   0  0  0  0  0  0  0  0  0  0  0  0
    1.3558    3.4398   -5.4023 H   0  0  0  0  0  0  0  0  0  0  0  0
  2  1  2  0
  3  4  2  0
  4  1  1  0
  5  6  1  0
  6  2  1  0
  7 10  1  0
  8  7  2  0
  9  7  1  0
 10 14  1  0
 11  3  1  0
 12  8  1  0
 13  1  1  0
 14 11  1  0
 15  9  1  0
 16  2  1  0
 17 13  1  0
 18  6  2  0
 19 10  2  0
 20 13  2  0
 21  5  1  0
 22 17  1  0
 23 26  2  0
 24 22  1  0
 25 23  1  0
 26 28  1  0
 27 29  2  0
 28 24  2  0
 29 24  1  0
 30 11  1  0
 31 11  1  0
 32 15  1  0
  5  3  1  0
 27 23  1  0
 12 15  2  0
 14 33  1  0
 17 34  1  0
 21 35  1  0
 21 36  1  0
 21 37  1  0
 22 38  1  0
 22 39  1  0
 26 40  1  0
 27 41  1  0
 28 42  1  0
 29 43  1  0
 30 44  1  0
 30 45  1  0
 30 46  1  0
 31 47  1  0
 31 48  1  0
 31 49  1  0
 32 50  1  0
 32 51  1  0
 32 52  1  0
M  CHG  1  16  -1
M  END
$$$$
