
     RDKit          3D

 33 34  0  0  0  0  0  0  0  0999 V2000
    0.0000    0.0000    0.0000 K   0  0  0  0  0 15  0  0  0  0  0  0
    0.8848   -1.4220    1.2290 C   0  0  0  0  0  0  0  0  0  0  0  0
    1.4428   -1.7048    2.4543 C   0  0  0  0  0  0  0  0  0  0  0  0
   -1.2669   -1.2504    2.1700 C   0  0  0  0  0  0  0  0  0  0  0  0
   -0.4317   -1.2061    1.1208 N   0  0  0  0  0  0  0  0  0  0  0  0
   -0.7196   -1.5268    3.3691 N   0  0  0  0  0  0  0  0  0  0  0  0
    0.5949   -1.7521    3.5366 C   0  0  0  0  0  0  0  0  0  0  0  0
   -3.2406    0.6450   -1.3402 C   0  0  0  0  0  0  0  0  0  0  0  0
   -3.0518    0.3791   -2.6470 N   0  0  0  0  0  0  0  0  0  0  0  0
   -3.7577    1.8409   -1.2833 O   0  0  0  0  0  0  0  0  0  0  0  0
   -2.8961   -0.2968   -0.2843 C   0  0  0  0  0  0  0  0  0  0  0  0
   -2.7269   -1.0202    2.0833 C   0  0  0  0  0  0  0  0  0  0  0  0
   -3.4565    1.4196   -3.3874 N   0  0  0  0  0  0  0  0  0  0  0  0
    1.7650   -1.3634    0.0689 C   0  0  0  0  0  0  0  0  0  0  0  0
   -3.0982   -0.0351    1.0870 N   0  0  0  0  0  0  0  0  0  0  0  0
   -3.8966    2.3280   -2.5115 C   0  0  0  0  0  0  0  0  0  0  0  0
    2.7940   -1.9405    2.6503 O   0  0  0  0  0  0  0  0  0  0  0  0
    1.3359   -1.0636   -1.2376 N   0  0  0  0  0  0  0  0  0  0  0  0
    1.0611   -2.0100    4.6984 O   0  0  0  0  0  0  0  0  0  0  0  0
   -2.3872   -1.4027   -0.6753 O   0  0  0  0  0  0  0  0  0  0  0  0
    2.9918   -1.5947    0.2404 O   0  0  0  0  0  0  0  0  0  0  0  0
   -1.5811   -1.5845    4.5348 C   0  0  0  0  0  0  0  0  0  0  0  0
    2.2571   -1.0133   -2.3763 C   0  0  0  0  0  0  0  0  0  0  0  0
    4.5972    2.5345   -2.2420 C   0  0  0  0  0  0  0  0  0  0  0  0
    3.0614    0.2546   -2.3458 C   0  0  0  0  0  0  0  0  0  0  0  0
    5.4050    3.6370   -2.1564 F   0  0  0  0  0  0  0  0  0  0  0  0
    5.0496    1.3793   -1.6098 C   0  0  0  0  0  0  0  0  0  0  0  0
    3.3962    2.5802   -2.9254 C   0  0  0  0  0  0  0  0  0  0  0  0
    4.2801    0.2259   -1.6584 C   0  0  0  0  0  0  0  0  0  0  0  0
    2.6338    1.4089   -2.9636 C   0  0  0  0  0  0  0  0  0  0  0  0
   -3.4401   -2.3260    1.8886 C   0  0  0  0  0  0  0  0  0  0  0  0
   -3.1579   -0.4296    3.4294 C   0  0  0  0  0  0  0  0  0  0  0  0
   -4.4418    3.6512   -2.9167 C   0  0  0  0  0  0  0  0  0  0  0  0
  3  2  2  0
  4  5  2  0
  5  2  1  0
  6  7  1  0
  7  3  1  0
  8 11  1  0
  9  8  2  0
 10  8  1  0
 11 15  1  0
 12  4  1  0
 13  9  1  0
 14  2  1  0
 15 12  1  0
 16 10  1  0
 17  3  1  0
 18 14  1  0
 19  7  2  0
 20 11  2  0
 21 14  2  0
 22  6  1  0
 23 18  1  0
 24 27  2  0
 25 23  1  0
 26 24  1  0
 27 29  1  0
 28 30  2  0
 29 25  2  0
 30 25  1  0
 31 12  1  0
 32 12  1  0
 33 16  1  0
  6  4  1  0
 28 24  1  0
 13 16  2  0
M  CHG  2   1   1  17  -1
M  END
