
     RDKit          3D

 52 54  0  0  0  0  0  0  0  0999 V2000
   -1.4011    1.1326   -0.1714 C   0  0  0  0  0  0  0  0  0  0  0  0
   -1.4187    0.7574   -1.5150 C   0  0  0  0  0  0  0  0  0  0  0  0
    0.9871    1.0824   -0.1782 C   0  0  0  0  0  0  0  0  0  0  0  0
   -0.2074    1.2616    0.4523 N   0  0  0  0  0  0  0  0  0  0  0  0
    0.9932    0.8075   -1.5381 N   0  0  0  0  0  0  0  0  0  0  0  0
   -0.2044    0.6005   -2.1851 C   0  0  0  0  0  0  0  0  0  0  0  0
    4.2399   -2.0261    0.0581 C   0  0  0  0  0  0  0  0  0  0  0  0
    4.1486   -3.3700    0.0432 N   0  0  0  0  0  0  0  0  0  0  0  0
    5.4582   -1.6285   -0.2208 O   0  0  0  0  0  0  0  0  0  0  0  0
    3.1158   -1.1267    0.3452 C   0  0  0  0  0  0  0  0  0  0  0  0
    2.2559    1.2732    0.6759 C   0  0  0  0  0  0  0  0  0  0  0  0
    5.3569   -3.8210   -0.2559 N   0  0  0  0  0  0  0  0  0  0  0  0
   -2.6352    1.3407    0.6120 C   0  0  0  0  0  0  0  0  0  0  0  0
    3.3058    0.3000    0.3231 N   0  0  0  0  0  0  0  0  0  0  0  0
    6.1372   -2.7343   -0.4064 C   0  0  0  0  0  0  0  0  0  0  0  0
   -2.6158    0.5078   -2.1808 O   0  0  0  0  0  0  0  0  0  0  0  0
   -3.8238    1.8676    0.0029 N   0  0  0  0  0  0  0  0  0  0  0  0
   -0.2290    0.2560   -3.4000 O   0  0  0  0  0  0  0  0  0  0  0  0
    1.9814   -1.6187    0.5906 O   0  0  0  0  0  0  0  0  0  0  0  0
   -2.6242    1.0866    1.8471 O   0  0  0  0  0  0  0  0  0  0  0  0
    2.2336    0.6411   -2.3222 C   0  0  0  0  0  0  0  0  0  0  0  0
   -5.1265    1.8131    0.6616 C   0  0  0  0  0  0  0  0  0  0  0  0
   -6.5179   -2.2663    0.7055 C   0  0  0  0  0  0  0  0  0  0  0  0
   -5.6331    0.3971    0.6872 C   0  0  0  0  0  0  0  0  0  0  0  0
   -6.9459   -3.5526    0.7145 F   0  0  0  0  0  0  0  0  0  0  0  0
   -6.5140   -1.5390   -0.4884 C   0  0  0  0  0  0  0  0  0  0  0  0
   -6.0762   -1.6681    1.8895 C   0  0  0  0  0  0  0  0  0  0  0  0
   -6.0711   -0.2128   -0.4998 C   0  0  0  0  0  0  0  0  0  0  0  0
   -5.6322   -0.3420    1.8820 C   0  0  0  0  0  0  0  0  0  0  0  0
    2.7742    2.7163    0.4860 C   0  0  0  0  0  0  0  0  0  0  0  0
    1.9446    1.0984    2.1837 C   0  0  0  0  0  0  0  0  0  0  0  0
    7.5795   -2.7841   -0.7777 C   0  0  0  0  0  0  0  0  0  0  0  0
    4.2603    0.6573    0.0885 H   0  0  0  0  0  0  0  0  0  0  0  0
   -3.7597    2.3443   -0.9244 H   0  0  0  0  0  0  0  0  0  0  0  0
    3.0570    1.2762   -1.9583 H   0  0  0  0  0  0  0  0  0  0  0  0
    2.0875    0.9537   -3.3782 H   0  0  0  0  0  0  0  0  0  0  0  0
    2.5460   -0.4238   -2.3121 H   0  0  0  0  0  0  0  0  0  0  0  0
   -5.8493    2.4453    0.1014 H   0  0  0  0  0  0  0  0  0  0  0  0
   -5.0495    2.2369    1.6866 H   0  0  0  0  0  0  0  0  0  0  0  0
   -6.8513   -2.0030   -1.4063 H   0  0  0  0  0  0  0  0  0  0  0  0
   -6.0747   -2.2321    2.8134 H   0  0  0  0  0  0  0  0  0  0  0  0
   -6.0651    0.3381   -1.4323 H   0  0  0  0  0  0  0  0  0  0  0  0
   -5.2859    0.1056    2.8054 H   0  0  0  0  0  0  0  0  0  0  0  0
    3.0197    2.9413   -0.5692 H   0  0  0  0  0  0  0  0  0  0  0  0
    3.6909    2.8827    1.0922 H   0  0  0  0  0  0  0  0  0  0  0  0
    2.0055    3.4512    0.8102 H   0  0  0  0  0  0  0  0  0  0  0  0
    2.8820    1.1481    2.7791 H   0  0  0  0  0  0  0  0  0  0  0  0
    1.2633    1.8968    2.5507 H   0  0  0  0  0  0  0  0  0  0  0  0
    1.4613    0.1197    2.3841 H   0  0  0  0  0  0  0  0  0  0  0  0
    7.6754   -2.8182   -1.8827 H   0  0  0  0  0  0  0  0  0  0  0  0
    8.0525   -3.6880   -0.3396 H   0  0  0  0  0  0  0  0  0  0  0  0
    8.0987   -1.8816   -0.3926 H   0  0  0  0  0  0  0  0  0  0  0  0
  2  1  2  0
  3  4  2  0
  4  1  1  0
  5  6  1  0
  6  2  1  0
  7 10  1  0
  8  7  2  0
  9  7  1  0
 10 14  1  0
 11  3  1  0
 12  8  1  0
 13  1  1  0
 14 11  1  0
 15  9  1  0
 16  2  1  0
 17 13  1  0
 18  6  2  0
 19 10  2  0
 20 13  2  0
 21  5  1  0
 22 17  1  0
 23 26  2  0
 24 22  1  0
 25 23  1  0
 26 28  1  0
 27 29  2  0
 28 24  2  0
 29 24  1  0
 30 11  1  0
 31 11  1  0
 32 15  1  0
  5  3  1  0
 27 23  1  0
 12 15  2  0
 14 33  1  0
 17 34  1  0
 21 35  1  0
 21 36  1  0
 21 37  1  0
 22 38  1  0
 22 39  1  0
 26 40  1  0
 27 41  1  0
 28 42  1  0
 29 43  1  0
 30 44  1  0
 30 45  1  0
 30 46  1  0
 31 47  1  0
 31 48  1  0
 31 49  1  0
 32 50  1  0
 32 51  1  0
 32 52  1  0
M  CHG  1  16  -1
M  END
$$$$
