
     RDKit          3D

 26 25  0  0  0  0  0  0  0  0999 V2000
    0.6844    0.0000    0.0000 Cl  0  0  0  0  0  0  0  0  0  0  0  0
   -0.6338   -0.8979    0.4916 C   0  0  1  0  0  0  0  0  0  0  0  0
    0.6853   -0.2993    0.2876 C   0  0  0  0  0  0  0  0  0  0  0  0
   -1.6647    0.0831    0.9910 C   0  0  2  0  0  0  0  0  0  0  0  0
   -2.9120   -0.5980    1.2774 N   0  0  0  0  0  0  0  0  0  0  0  0
   -1.0447   -1.5344   -0.6708 O   0  0  0  0  0  0  0  0  0  0  0  0
    1.6586   -1.0334   -0.3388 C   0  0  0  0  0  0  0  0  0  0  0  0
    1.0327    0.9845    0.6896 C   0  0  0  0  0  0  0  0  0  0  0  0
   -1.9481    1.0571   -0.1292 C   0  0  0  0  0  0  0  0  0  0  0  0
    2.2900    1.5013    0.4734 C   0  0  0  0  0  0  0  0  0  0  0  0
    2.9424   -0.5279   -0.5685 C   0  0  0  0  0  0  0  0  0  0  0  0
    3.2693    0.7507   -0.1616 C   0  0  0  0  0  0  0  0  0  0  0  0
   -0.6844    0.0000    0.0000 H   0  0  0  0  0  0  0  0  0  0  0  0
   -0.5407   -1.6831    1.2861 H   0  0  0  0  0  0  0  0  0  0  0  0
   -1.2952    0.5477    1.9166 H   0  0  0  0  0  0  0  0  0  0  0  0
   -3.6036   -0.5075    0.4786 H   0  0  0  0  0  0  0  0  0  0  0  0
   -2.7640   -1.5952    1.5325 H   0  0  0  0  0  0  0  0  0  0  0  0
   -1.6226   -2.3113   -0.4702 H   0  0  0  0  0  0  0  0  0  0  0  0
    1.4894   -2.0517   -0.6937 H   0  0  0  0  0  0  0  0  0  0  0  0
    0.3013    1.5887    1.1816 H   0  0  0  0  0  0  0  0  0  0  0  0
   -1.3109    0.8631   -1.0267 H   0  0  0  0  0  0  0  0  0  0  0  0
   -3.0067    1.0063   -0.4975 H   0  0  0  0  0  0  0  0  0  0  0  0
   -1.8092    2.1174    0.1666 H   0  0  0  0  0  0  0  0  0  0  0  0
    2.5605    2.4998    0.7860 H   0  0  0  0  0  0  0  0  0  0  0  0
    3.6892   -1.1374   -1.0678 H   0  0  0  0  0  0  0  0  0  0  0  0
    4.2376    1.1774   -0.3165 H   0  0  0  0  0  0  0  0  0  0  0  0
  3  2  1  0
  4  2  1  0
  5  4  1  0
  6  2  1  0
  7  3  2  0
  8  3  1  0
  9  4  1  0
 10  8  2  0
 11  7  1  0
 12 11  2  0
 12 10  1  0
  1 13  1  0
  2 14  1  1
  4 15  1  1
  5 16  1  0
  5 17  1  0
  6 18  1  0
  7 19  1  0
  8 20  1  0
  9 21  1  0
  9 22  1  0
  9 23  1  0
 10 24  1  0
 11 25  1  0
 12 26  1  0
M  END
$$$$
