
     RDKit          3D

 26 25  0  0  0  0  0  0  0  0999 V2000
    0.6892    0.0000    0.0000 Cl  0  0  0  0  0  0  0  0  0  0  0  0
   -0.7569   -0.6003   -0.0227 C   0  0  1  0  0  0  0  0  0  0  0  0
    0.6525   -0.2700    0.1859 C   0  0  0  0  0  0  0  0  0  0  0  0
   -1.6859    0.5124   -0.3072 C   0  0  2  0  0  0  0  0  0  0  0  0
   -1.7990    1.5347    0.6824 N   0  0  0  0  0  0  0  0  0  0  0  0
   -0.8337   -1.4722   -1.1376 O   0  0  0  0  0  0  0  0  0  0  0  0
    1.1742    0.9618    0.4210 C   0  0  0  0  0  0  0  0  0  0  0  0
    1.5630   -1.3355    0.1398 C   0  0  0  0  0  0  0  0  0  0  0  0
   -3.0773   -0.1284   -0.4196 C   0  0  0  0  0  0  0  0  0  0  0  0
    2.9065   -1.1093    0.3270 C   0  0  0  0  0  0  0  0  0  0  0  0
    2.5350    1.2005    0.6120 C   0  0  0  0  0  0  0  0  0  0  0  0
    3.4229    0.1475    0.5650 C   0  0  0  0  0  0  0  0  0  0  0  0
   -0.6892    0.0000    0.0000 H   0  0  0  0  0  0  0  0  0  0  0  0
   -1.1100   -1.1677    0.8770 H   0  0  0  0  0  0  0  0  0  0  0  0
   -1.4041    0.9669   -1.2762 H   0  0  0  0  0  0  0  0  0  0  0  0
   -2.7670    1.9617    0.7022 H   0  0  0  0  0  0  0  0  0  0  0  0
   -1.4864    1.2246    1.6282 H   0  0  0  0  0  0  0  0  0  0  0  0
    0.0523   -1.6043   -1.5607 H   0  0  0  0  0  0  0  0  0  0  0  0
    0.5315    1.8035    0.4651 H   0  0  0  0  0  0  0  0  0  0  0  0
    1.2327   -2.3462   -0.0419 H   0  0  0  0  0  0  0  0  0  0  0  0
   -3.8674    0.6380   -0.5221 H   0  0  0  0  0  0  0  0  0  0  0  0
   -3.0441   -0.8483   -1.2611 H   0  0  0  0  0  0  0  0  0  0  0  0
   -3.2113   -0.7153    0.5182 H   0  0  0  0  0  0  0  0  0  0  0  0
    3.6232   -1.9227    0.2943 H   0  0  0  0  0  0  0  0  0  0  0  0
    2.8758    2.2272    0.7971 H   0  0  0  0  0  0  0  0  0  0  0  0
    4.4734    0.3413    0.7138 H   0  0  0  0  0  0  0  0  0  0  0  0
  3  2  1  0
  4  2  1  0
  5  4  1  0
  6  2  1  0
  7  3  2  0
  8  3  1  0
  9  4  1  0
 10  8  2  0
 11  7  1  0
 12 11  2  0
 12 10  1  0
  1 13  1  0
  2 14  1  1
  4 15  1  6
  5 16  1  0
  5 17  1  0
  6 18  1  0
  7 19  1  0
  8 20  1  0
  9 21  1  0
  9 22  1  0
  9 23  1  0
 10 24  1  0
 11 25  1  0
 12 26  1  0
M  END
$$$$
