
     RDKit          3D

 26 25  0  0  0  0  0  0  0  0999 V2000
    0.6836    0.0000    0.0000 Cl  0  0  0  0  0  0  0  0  0  0  0  0
   -0.7060   -0.2281   -0.6754 C   0  0  1  0  0  0  0  0  0  0  0  0
    0.6652   -0.1037   -0.1884 C   0  0  0  0  0  0  0  0  0  0  0  0
   -1.7206    0.4078    0.2026 C   0  0  2  0  0  0  0  0  0  0  0  0
   -1.7033   -0.2153    1.4975 N   0  0  0  0  0  0  0  0  0  0  0  0
   -0.7398    0.3548   -1.9718 O   0  0  0  0  0  0  0  0  0  0  0  0
    1.6881   -0.5405   -1.0396 C   0  0  0  0  0  0  0  0  0  0  0  0
    1.0670    0.4077    1.0162 C   0  0  0  0  0  0  0  0  0  0  0  0
   -3.1206    0.3645   -0.4041 C   0  0  0  0  0  0  0  0  0  0  0  0
    2.4068    0.4978    1.3945 C   0  0  0  0  0  0  0  0  0  0  0  0
    3.0180   -0.4572   -0.6782 C   0  0  0  0  0  0  0  0  0  0  0  0
    3.3990    0.0620    0.5419 C   0  0  0  0  0  0  0  0  0  0  0  0
   -0.6836    0.0000    0.0000 H   0  0  0  0  0  0  0  0  0  0  0  0
   -0.9877   -1.3002   -0.8415 H   0  0  0  0  0  0  0  0  0  0  0  0
   -1.5081    1.5167    0.2739 H   0  0  0  0  0  0  0  0  0  0  0  0
   -1.1159   -1.1027    1.4871 H   0  0  0  0  0  0  0  0  0  0  0  0
   -2.6451   -0.5501    1.8152 H   0  0  0  0  0  0  0  0  0  0  0  0
   -0.3656   -0.3305   -2.5750 H   0  0  0  0  0  0  0  0  0  0  0  0
    1.4838   -0.9615   -2.0141 H   0  0  0  0  0  0  0  0  0  0  0  0
    0.3576    0.7753    1.7351 H   0  0  0  0  0  0  0  0  0  0  0  0
   -3.1915    1.1324   -1.1751 H   0  0  0  0  0  0  0  0  0  0  0  0
   -3.4094   -0.6473   -0.7340 H   0  0  0  0  0  0  0  0  0  0  0  0
   -3.7988    0.6571    0.4433 H   0  0  0  0  0  0  0  0  0  0  0  0
    2.6881    0.9074    2.3546 H   0  0  0  0  0  0  0  0  0  0  0  0
    3.8144   -0.7934   -1.3324 H   0  0  0  0  0  0  0  0  0  0  0  0
    4.4244    0.1470    0.8675 H   0  0  0  0  0  0  0  0  0  0  0  0
  3  2  1  0
  4  2  1  0
  5  4  1  0
  6  2  1  0
  7  3  2  0
  8  3  1  0
  9  4  1  0
 10  8  2  0
 11  7  1  0
 12 11  2  0
 12 10  1  0
  1 13  1  0
  2 14  1  6
  4 15  1  1
  5 16  1  0
  5 17  1  0
  6 18  1  0
  7 19  1  0
  8 20  1  0
  9 21  1  0
  9 22  1  0
  9 23  1  0
 10 24  1  0
 11 25  1  0
 12 26  1  0
M  END
$$$$
