
     RDKit          3D

 26 25  0  0  0  0  0  0  0  0999 V2000
    0.6867    0.0000    0.0000 Cl  0  0  0  0  0  0  0  0  0  0  0  0
   -0.5942    0.1038    1.0739 C   0  0  1  0  0  0  0  0  0  0  0  0
    0.6986   -0.1121    0.3699 C   0  0  0  0  0  0  0  0  0  0  0  0
   -1.5802    0.7046    0.0980 C   0  0  2  0  0  0  0  0  0  0  0  0
   -2.7794    1.0426    0.8403 N   0  0  0  0  0  0  0  0  0  0  0  0
   -1.0697   -1.0364    1.6889 O   0  0  0  0  0  0  0  0  0  0  0  0
    0.9626   -1.1883   -0.4244 C   0  0  0  0  0  0  0  0  0  0  0  0
    1.7259    0.8272    0.5098 C   0  0  0  0  0  0  0  0  0  0  0  0
   -1.8718   -0.2323   -1.0304 C   0  0  0  0  0  0  0  0  0  0  0  0
    2.9393    0.6949   -0.1074 C   0  0  0  0  0  0  0  0  0  0  0  0
    2.1893   -1.3292   -1.0528 C   0  0  0  0  0  0  0  0  0  0  0  0
    3.1946   -0.3971   -0.9078 C   0  0  0  0  0  0  0  0  0  0  0  0
   -0.6867    0.0000    0.0000 H   0  0  0  0  0  0  0  0  0  0  0  0
   -0.4366    0.8893    1.8677 H   0  0  0  0  0  0  0  0  0  0  0  0
   -1.1651    1.6270   -0.3171 H   0  0  0  0  0  0  0  0  0  0  0  0
   -3.3069    1.8407    0.4496 H   0  0  0  0  0  0  0  0  0  0  0  0
   -3.3234    0.2116    1.0903 H   0  0  0  0  0  0  0  0  0  0  0  0
   -1.7091   -0.7929    2.3994 H   0  0  0  0  0  0  0  0  0  0  0  0
    0.2098   -1.9462   -0.5701 H   0  0  0  0  0  0  0  0  0  0  0  0
    1.5238    1.6967    1.1466 H   0  0  0  0  0  0  0  0  0  0  0  0
   -2.0839   -1.2681   -0.7459 H   0  0  0  0  0  0  0  0  0  0  0  0
   -2.7628    0.1740   -1.5849 H   0  0  0  0  0  0  0  0  0  0  0  0
   -0.9998   -0.2264   -1.7239 H   0  0  0  0  0  0  0  0  0  0  0  0
    3.7391    1.4174   -0.0040 H   0  0  0  0  0  0  0  0  0  0  0  0
    2.3416   -2.1990   -1.6679 H   0  0  0  0  0  0  0  0  0  0  0  0
    4.1585   -0.5020   -1.3979 H   0  0  0  0  0  0  0  0  0  0  0  0
  3  2  1  0
  4  2  1  0
  5  4  1  0
  6  2  1  0
  7  3  2  0
  8  3  1  0
  9  4  1  0
 10  8  2  0
 11  7  1  0
 12 11  2  0
 12 10  1  0
  1 13  1  0
  2 14  1  1
  4 15  1  6
  5 16  1  0
  5 17  1  0
  6 18  1  0
  7 19  1  0
  8 20  1  0
  9 21  1  0
  9 22  1  0
  9 23  1  0
 10 24  1  0
 11 25  1  0
 12 26  1  0
M  END
$$$$
