
     RDKit          3D

 37 24  0  0  0  0  0  0  0  0999 V2000
   -0.0002    0.3978    0.0000 O   0  0  0  0  0  0  0  0  0  0  0  0
   -0.0000   -0.0000    0.0000 S   0  0  0  0  0  0  0  0  0  0  0  0
    0.0369   -0.8831   -1.1799 O   0  0  0  0  0  0  0  0  0  0  0  0
   -0.1015   -0.8175    1.2226 O   0  0  0  0  0  0  0  0  0  0  0  0
    1.2331    0.8064    0.0490 O   0  0  0  0  0  0  0  0  0  0  0  0
   -1.1686    0.8941   -0.0917 O   0  0  0  0  0  0  0  0  0  0  0  0
    0.0000    0.0000    0.0000 Na  0  0  0  0  0 15  0  0  0  0  0  0
    0.0000    0.0000    0.0000 Na  0  0  0  0  0 15  0  0  0  0  0  0
   -0.0008    0.3978    0.0000 O   0  0  0  0  0  0  0  0  0  0  0  0
   -0.0007    0.3978    0.0000 O   0  0  0  0  0  0  0  0  0  0  0  0
   -0.0002    0.3978    0.0000 O   0  0  0  0  0  0  0  0  0  0  0  0
   -0.0002    0.3978    0.0000 O   0  0  0  0  0  0  0  0  0  0  0  0
   -0.0002    0.3978    0.0000 O   0  0  0  0  0  0  0  0  0  0  0  0
   -0.0007    0.3978    0.0000 O   0  0  0  0  0  0  0  0  0  0  0  0
   -0.0008    0.3978    0.0000 O   0  0  0  0  0  0  0  0  0  0  0  0
   -0.0008    0.3978    0.0000 O   0  0  0  0  0  0  0  0  0  0  0  0
   -0.0004    0.3978    0.0000 O   0  0  0  0  0  0  0  0  0  0  0  0
   -0.7633   -0.1994    0.0000 H   0  0  0  0  0  0  0  0  0  0  0  0
    0.7636   -0.1984    0.0000 H   0  0  0  0  0  0  0  0  0  0  0  0
   -0.7631   -0.2005    0.0000 H   0  0  0  0  0  0  0  0  0  0  0  0
    0.7639   -0.1974    0.0000 H   0  0  0  0  0  0  0  0  0  0  0  0
   -0.7631   -0.2002    0.0000 H   0  0  0  0  0  0  0  0  0  0  0  0
    0.7638   -0.1976    0.0000 H   0  0  0  0  0  0  0  0  0  0  0  0
   -0.7634   -0.1993    0.0000 H   0  0  0  0  0  0  0  0  0  0  0  0
    0.7636   -0.1985    0.0000 H   0  0  0  0  0  0  0  0  0  0  0  0
    0.7636   -0.1984    0.0000 H   0  0  0  0  0  0  0  0  0  0  0  0
   -0.7633   -0.1994    0.0000 H   0  0  0  0  0  0  0  0  0  0  0  0
    0.7636   -0.1984    0.0000 H   0  0  0  0  0  0  0  0  0  0  0  0
   -0.7633   -0.1994    0.0000 H   0  0  0  0  0  0  0  0  0  0  0  0
   -0.7631   -0.2003    0.0000 H   0  0  0  0  0  0  0  0  0  0  0  0
    0.7638   -0.1975    0.0000 H   0  0  0  0  0  0  0  0  0  0  0  0
   -0.7631   -0.2004    0.0000 H   0  0  0  0  0  0  0  0  0  0  0  0
    0.7639   -0.1974    0.0000 H   0  0  0  0  0  0  0  0  0  0  0  0
    0.7639   -0.1973    0.0000 H   0  0  0  0  0  0  0  0  0  0  0  0
   -0.7631   -0.2005    0.0000 H   0  0  0  0  0  0  0  0  0  0  0  0
    0.7637   -0.1982    0.0000 H   0  0  0  0  0  0  0  0  0  0  0  0
   -0.7633   -0.1997    0.0000 H   0  0  0  0  0  0  0  0  0  0  0  0
  2  3  2  0
  2  4  2  0
  2  5  1  0
  2  6  1  0
  1 18  1  0
  1 19  1  0
  9 20  1  0
  9 21  1  0
 10 22  1  0
 10 23  1  0
 11 24  1  0
 11 25  1  0
 12 26  1  0
 12 27  1  0
 13 28  1  0
 13 29  1  0
 14 30  1  0
 14 31  1  0
 15 32  1  0
 15 33  1  0
 16 34  1  0
 16 35  1  0
 17 36  1  0
 17 37  1  0
M  CHG  4   5  -1   6  -1   7   1   8   1
M  END
$$$$
