
     RDKit          3D

102105  0  0  0  0  0  0  0  0999 V2000
   -1.2949   -0.0265   -0.3158 N   0  0  0  0  0  0  0  0  0  0  0  0
   -4.2722   -0.6280    0.6055 S   0  0  0  0  0  0  0  0  0  0  0  0
   -1.6915   -1.4000   -0.2283 C   0  0  0  0  0  0  0  0  0  0  0  0
   -2.1385    1.0979   -0.0465 C   0  0  0  0  0  0  0  0  0  0  0  0
   -2.9834   -1.7776    0.1915 C   0  0  0  0  0  0  0  0  0  0  0  0
   -3.4821    0.9435    0.3511 C   0  0  0  0  0  0  0  0  0  0  0  0
    0.0303    0.2460   -0.9323 C   0  0  0  0  0  0  0  0  0  0  0  0
    1.2209    0.1051    0.0515 C   0  0  1  0  0  0  0  0  0  0  0  0
    2.5298    0.2845   -0.7526 C   0  0  0  0  0  0  0  0  0  0  0  0
    3.7130    0.0472    0.0860 N   0  0  0  0  0  0  0  0  0  0  0  0
   -1.6832    2.4371   -0.1311 C   0  0  0  0  0  0  0  0  0  0  0  0
   -0.8190   -2.4669   -0.5506 C   0  0  0  0  0  0  0  0  0  0  0  0
   -4.3138    2.0618    0.5867 C   0  0  0  0  0  0  0  0  0  0  0  0
   -3.3569   -3.1370    0.2772 C   0  0  0  0  0  0  0  0  0  0  0  0
    1.1632    1.1076    1.2100 C   0  0  0  0  0  0  0  0  0  0  0  0
    4.3461   -1.2397   -0.2173 C   0  0  0  0  0  0  0  0  0  0  0  0
    4.6862    1.1337   -0.0413 C   0  0  0  0  0  0  0  0  0  0  0  0
   -1.1956   -3.8140   -0.4761 C   0  0  0  0  0  0  0  0  0  0  0  0
   -2.5102    3.5459    0.1116 C   0  0  0  0  0  0  0  0  0  0  0  0
   -3.8332    3.3578    0.4582 C   0  0  0  0  0  0  0  0  0  0  0  0
   -2.4681   -4.1516   -0.0582 C   0  0  0  0  0  0  0  0  0  0  0  0
   -1.2759   -0.1209   -0.4154 N   0  0  0  0  0  0  0  0  0  0  0  0
   -4.3304    0.2727    0.3513 S   0  0  0  0  0  0  0  0  0  0  0  0
   -1.7803    1.2187   -0.3792 C   0  0  0  0  0  0  0  0  0  0  0  0
   -2.0329   -1.2980   -0.1263 C   0  0  0  0  0  0  0  0  0  0  0  0
   -3.1213    1.5055   -0.0448 C   0  0  0  0  0  0  0  0  0  0  0  0
   -3.4019   -1.2341    0.2057 C   0  0  0  0  0  0  0  0  0  0  0  0
    0.1112   -0.2957   -0.9164 C   0  0  0  0  0  0  0  0  0  0  0  0
    1.2024   -0.0304    0.1598 C   0  0  2  0  0  0  0  0  0  0  0  0
    2.5878   -0.0350   -0.5352 C   0  0  0  0  0  0  0  0  0  0  0  0
    3.6732    0.3376    0.3870 N   0  0  0  0  0  0  0  0  0  0  0  0
   -1.4723   -2.5985   -0.1462 C   0  0  0  0  0  0  0  0  0  0  0  0
   -0.9731    2.3454   -0.6801 C   0  0  0  0  0  0  0  0  0  0  0  0
   -4.1514   -2.4059    0.4505 C   0  0  0  0  0  0  0  0  0  0  0  0
   -3.5994    2.8335   -0.0113 C   0  0  0  0  0  0  0  0  0  0  0  0
    1.1567   -1.0400    1.3103 C   0  0  0  0  0  0  0  0  0  0  0  0
    4.2071    1.6718    0.0796 C   0  0  0  0  0  0  0  0  0  0  0  0
    4.7457   -0.6604    0.3908 C   0  0  0  0  0  0  0  0  0  0  0  0
   -1.4515    3.6627   -0.6416 C   0  0  0  0  0  0  0  0  0  0  0  0
   -2.2173   -3.7588    0.1021 C   0  0  0  0  0  0  0  0  0  0  0  0
   -3.5654   -3.6635    0.3919 C   0  0  0  0  0  0  0  0  0  0  0  0
   -2.7684    3.9088   -0.3014 C   0  0  0  0  0  0  0  0  0  0  0  0
   -1.4726    1.4461    1.4381 O   0  0  0  0  0  0  0  0  0  0  0  0
   -2.2083   -0.6454    1.7568 O   0  0  0  0  0  0  0  0  0  0  0  0
    1.2201    1.6388   -1.4590 O   0  0  0  0  0  0  0  0  0  0  0  0
    2.2872   -0.3058   -1.7565 O   0  0  0  0  0  0  0  0  0  0  0  0
   -1.0323   -1.5225   -0.6180 O   0  0  0  0  0  0  0  0  0  0  0  0
    1.2630   -1.3298    0.6443 O   0  0  0  0  0  0  0  0  0  0  0  0
   -1.5385    0.1384    1.0976 C   0  0  0  0  0  0  0  0  0  0  0  0
   -0.7355   -0.2008   -0.1531 C   0  0  1  0  0  0  0  0  0  0  0  0
    0.7609   -0.0808    0.1473 C   0  0  2  0  0  0  0  0  0  0  0  0
    1.4972    0.3659   -1.1069 C   0  0  0  0  0  0  0  0  0  0  0  0
    0.1755   -0.4245   -1.7913 H   0  0  0  0  0  0  0  0  0  0  0  0
    0.0761    1.2220   -1.4301 H   0  0  0  0  0  0  0  0  0  0  0  0
    1.2185   -0.9005    0.4941 H   0  0  0  0  0  0  0  0  0  0  0  0
    2.5207   -0.3884   -1.6253 H   0  0  0  0  0  0  0  0  0  0  0  0
    2.5434    1.3010   -1.1811 H   0  0  0  0  0  0  0  0  0  0  0  0
   -0.6546    2.6866   -0.3663 H   0  0  0  0  0  0  0  0  0  0  0  0
    0.2001   -2.2924   -0.8734 H   0  0  0  0  0  0  0  0  0  0  0  0
   -5.3513    1.9209    0.8812 H   0  0  0  0  0  0  0  0  0  0  0  0
   -4.3612   -3.4136    0.5994 H   0  0  0  0  0  0  0  0  0  0  0  0
    1.2478    2.1402    0.8569 H   0  0  0  0  0  0  0  0  0  0  0  0
    0.2381    1.0052    1.7844 H   0  0  0  0  0  0  0  0  0  0  0  0
    1.9795    0.9308    1.9169 H   0  0  0  0  0  0  0  0  0  0  0  0
    5.1969   -1.4162    0.4511 H   0  0  0  0  0  0  0  0  0  0  0  0
    4.7034   -1.3001   -1.2574 H   0  0  0  0  0  0  0  0  0  0  0  0
    3.6371   -2.0618   -0.0409 H   0  0  0  0  0  0  0  0  0  0  0  0
    4.2317    2.0902    0.2599 H   0  0  0  0  0  0  0  0  0  0  0  0
    5.5420    0.9639    0.6216 H   0  0  0  0  0  0  0  0  0  0  0  0
    5.0604    1.2329   -1.0679 H   0  0  0  0  0  0  0  0  0  0  0  0
   -0.4855   -4.5920   -0.7480 H   0  0  0  0  0  0  0  0  0  0  0  0
   -2.1085    4.5553    0.0293 H   0  0  0  0  0  0  0  0  0  0  0  0
   -4.4832    4.2062    0.6501 H   0  0  0  0  0  0  0  0  0  0  0  0
   -2.7738   -5.1920    0.0050 H   0  0  0  0  0  0  0  0  0  0  0  0
    0.2744   -1.2754   -1.3769 H   0  0  0  0  0  0  0  0  0  0  0  0
    0.2620    0.3603   -1.7842 H   0  0  0  0  0  0  0  0  0  0  0  0
    1.0467    0.9610    0.6060 H   0  0  0  0  0  0  0  0  0  0  0  0
    2.7580   -1.0329   -0.9667 H   0  0  0  0  0  0  0  0  0  0  0  0
    2.5573    0.6528   -1.3928 H   0  0  0  0  0  0  0  0  0  0  0  0
   -0.4187   -2.7629   -0.3363 H   0  0  0  0  0  0  0  0  0  0  0  0
    0.0749    2.2491   -0.9468 H   0  0  0  0  0  0  0  0  0  0  0  0
   -5.2104   -2.3446    0.6967 H   0  0  0  0  0  0  0  0  0  0  0  0
   -4.6387    3.0338    0.2462 H   0  0  0  0  0  0  0  0  0  0  0  0
    1.8998   -0.7931    2.0742 H   0  0  0  0  0  0  0  0  0  0  0  0
    1.3667   -2.0580    0.9657 H   0  0  0  0  0  0  0  0  0  0  0  0
    0.1829   -1.0297    1.8082 H   0  0  0  0  0  0  0  0  0  0  0  0
    4.9637    1.9645    0.8139 H   0  0  0  0  0  0  0  0  0  0  0  0
    4.6641    1.7246   -0.9155 H   0  0  0  0  0  0  0  0  0  0  0  0
    3.4040    2.4142    0.1428 H   0  0  0  0  0  0  0  0  0  0  0  0
    5.2237   -0.7593   -0.5915 H   0  0  0  0  0  0  0  0  0  0  0  0
    4.3550   -1.6438    0.6845 H   0  0  0  0  0  0  0  0  0  0  0  0
    5.5142   -0.4037    1.1282 H   0  0  0  0  0  0  0  0  0  0  0  0
   -0.7834    4.4913   -0.8682 H   0  0  0  0  0  0  0  0  0  0  0  0
   -1.7311   -4.7304    0.0713 H   0  0  0  0  0  0  0  0  0  0  0  0
   -4.1538   -4.5578    0.5769 H   0  0  0  0  0  0  0  0  0  0  0  0
   -3.1537    4.9245   -0.2666 H   0  0  0  0  0  0  0  0  0  0  0  0
   -2.0412    1.5183    2.2397 H   0  0  0  0  0  0  0  0  0  0  0  0
    1.7788    1.7993   -2.2478 H   0  0  0  0  0  0  0  0  0  0  0  0
   -1.0380   -2.0891    0.1797 H   0  0  0  0  0  0  0  0  0  0  0  0
    1.3546   -1.9058   -0.1406 H   0  0  0  0  0  0  0  0  0  0  0  0
   -1.0645    0.4974   -0.9369 H   0  0  0  0  0  0  0  0  0  0  0  0
    0.9692    0.6756    0.9153 H   0  0  0  0  0  0  0  0  0  0  0  0
 10  9  1  0
 11  4  2  0
 12  3  2  0
 13  6  2  0
 14  5  2  0
 15  8  1  0
 16 10  1  0
 17 10  1  0
 18 12  1  0
 19 11  1  0
 20 19  2  0
 21 18  2  0
  5  2  1  0
 13 20  1  0
 14 21  1  0
  2  6  1  0
  3  1  1  0
  4  1  1  0
  5  3  1  0
  6  4  1  0
  7  1  1  0
  8  7  1  0
  9  8  1  0
 31 30  1  0
 32 25  2  0
 33 24  2  0
 34 27  2  0
 35 26  2  0
 36 29  1  0
 37 31  1  0
 38 31  1  0
 39 33  1  0
 40 32  1  0
 41 40  2  0
 42 39  2  0
 26 23  1  0
 34 41  1  0
 35 42  1  0
 23 27  1  0
 24 22  1  0
 25 22  1  0
 26 24  1  0
 27 25  1  0
 28 22  1  0
 29 28  1  0
 30 29  1  0
 49 44  2  0
 50 47  1  0
 51 48  1  0
 49 43  1  0
 51 52  1  0
 50 51  1  0
 52 45  1  0
 49 50  1  0
 52 46  2  0
  7 53  1  0
  7 54  1  0
  8 55  1  1
  9 56  1  0
  9 57  1  0
 11 58  1  0
 12 59  1  0
 13 60  1  0
 14 61  1  0
 15 62  1  0
 15 63  1  0
 15 64  1  0
 16 65  1  0
 16 66  1  0
 16 67  1  0
 17 68  1  0
 17 69  1  0
 17 70  1  0
 18 71  1  0
 19 72  1  0
 20 73  1  0
 21 74  1  0
 28 75  1  0
 28 76  1  0
 29 77  1  1
 30 78  1  0
 30 79  1  0
 32 80  1  0
 33 81  1  0
 34 82  1  0
 35 83  1  0
 36 84  1  0
 36 85  1  0
 36 86  1  0
 37 87  1  0
 37 88  1  0
 37 89  1  0
 38 90  1  0
 38 91  1  0
 38 92  1  0
 39 93  1  0
 40 94  1  0
 41 95  1  0
 42 96  1  0
 43 97  1  0
 45 98  1  0
 47 99  1  0
 48100  1  0
 50101  1  6
 51102  1  1
M  END
$$$$
