
     RDKit          3D

102105  0  0  0  0  0  0  0  0999 V2000
   -1.0903    0.0117    0.6625 N   0  0  0  0  0  0  0  0  0  0  0  0
   -3.5297   -1.0585   -1.0473 S   0  0  0  0  0  0  0  0  0  0  0  0
   -1.4008   -1.3853    0.7682 C   0  0  0  0  0  0  0  0  0  0  0  0
   -1.8935    0.9853   -0.0078 C   0  0  0  0  0  0  0  0  0  0  0  0
   -2.4843   -1.9570    0.0685 C   0  0  0  0  0  0  0  0  0  0  0  0
   -3.0099    0.6188   -0.7912 C   0  0  0  0  0  0  0  0  0  0  0  0
    0.1911    0.4486    1.2726 C   0  0  0  0  0  0  0  0  0  0  0  0
    1.4309    0.0643    0.4164 C   0  0  1  0  0  0  0  0  0  0  0  0
    1.5351    0.9873   -0.8248 C   0  0  0  0  0  0  0  0  0  0  0  0
    2.6025    0.7803   -1.8131 N   0  0  0  0  0  0  0  0  0  0  0  0
   -1.6376    2.3767    0.0738 C   0  0  0  0  0  0  0  0  0  0  0  0
   -0.6593   -2.2717    1.5948 C   0  0  0  0  0  0  0  0  0  0  0  0
   -3.7929    1.5918   -1.4497 C   0  0  0  0  0  0  0  0  0  0  0  0
   -2.7928   -3.3262    0.2009 C   0  0  0  0  0  0  0  0  0  0  0  0
    2.6728    0.1260    1.3120 C   0  0  0  0  0  0  0  0  0  0  0  0
    2.7590   -0.6002   -2.2374 C   0  0  0  0  0  0  0  0  0  0  0  0
    3.8760    1.4003   -1.4817 C   0  0  0  0  0  0  0  0  0  0  0  0
   -0.9797   -3.6307    1.7244 C   0  0  0  0  0  0  0  0  0  0  0  0
   -2.4171    3.3390   -0.5819 C   0  0  0  0  0  0  0  0  0  0  0  0
   -3.4997    2.9456   -1.3454 C   0  0  0  0  0  0  0  0  0  0  0  0
   -2.0520   -4.1605    1.0289 C   0  0  0  0  0  0  0  0  0  0  0  0
   -1.0765   -0.8365   -0.5596 N   0  0  0  0  0  0  0  0  0  0  0  0
   -2.8516    1.3371    0.8484 S   0  0  0  0  0  0  0  0  0  0  0  0
   -1.6880   -1.2070    0.6768 C   0  0  0  0  0  0  0  0  0  0  0  0
   -1.4698    0.2776   -1.3572 C   0  0  0  0  0  0  0  0  0  0  0  0
   -2.5431   -0.3301    1.3731 C   0  0  0  0  0  0  0  0  0  0  0  0
   -2.2804    1.3054   -0.8374 C   0  0  0  0  0  0  0  0  0  0  0  0
    0.2382   -1.4656   -0.8556 C   0  0  0  0  0  0  0  0  0  0  0  0
    1.3808   -0.9645    0.0676 C   0  0  2  0  0  0  0  0  0  0  0  0
    1.7690    0.4921   -0.2888 C   0  0  0  0  0  0  0  0  0  0  0  0
    2.9667    0.9970    0.4102 N   0  0  0  0  0  0  0  0  0  0  0  0
   -1.1240    0.3790   -2.7252 C   0  0  0  0  0  0  0  0  0  0  0  0
   -1.4989   -2.4803    1.2555 C   0  0  0  0  0  0  0  0  0  0  0  0
   -2.6631    2.4001   -1.6315 C   0  0  0  0  0  0  0  0  0  0  0  0
   -3.1593   -0.7148    2.5815 C   0  0  0  0  0  0  0  0  0  0  0  0
    2.5792   -1.9135   -0.0889 C   0  0  0  0  0  0  0  0  0  0  0  0
    3.4109    2.2517   -0.1966 C   0  0  0  0  0  0  0  0  0  0  0  0
    2.6960    1.2091    1.8323 C   0  0  0  0  0  0  0  0  0  0  0  0
   -2.1056   -2.8585    2.4601 C   0  0  0  0  0  0  0  0  0  0  0  0
   -1.5035    1.4779   -3.5083 C   0  0  0  0  0  0  0  0  0  0  0  0
   -2.2669    2.4916   -2.9605 C   0  0  0  0  0  0  0  0  0  0  0  0
   -2.9444   -1.9739    3.1236 C   0  0  0  0  0  0  0  0  0  0  0  0
   -1.1649    1.1452    1.8699 O   0  0  0  0  0  0  0  0  0  0  0  0
   -2.6734   -0.3316    1.1445 O   0  0  0  0  0  0  0  0  0  0  0  0
    2.2774    0.0019   -1.5685 O   0  0  0  0  0  0  0  0  0  0  0  0
    2.0522    1.6249   -0.0257 O   0  0  0  0  0  0  0  0  0  0  0  0
   -1.1971   -0.8746   -1.1992 O   0  0  0  0  0  0  0  0  0  0  0  0
    0.9050   -1.7901   -0.0311 O   0  0  0  0  0  0  0  0  0  0  0  0
   -1.5967    0.2210    0.9787 C   0  0  0  0  0  0  0  0  0  0  0  0
   -0.6804    0.0586   -0.2295 C   0  0  1  0  0  0  0  0  0  0  0  0
    0.7121   -0.4007    0.2312 C   0  0  2  0  0  0  0  0  0  0  0  0
    1.7390    0.5097   -0.4369 C   0  0  0  0  0  0  0  0  0  0  0  0
    0.2682    0.0279    2.2801 H   0  0  0  0  0  0  0  0  0  0  0  0
    0.2453    1.5144    1.5066 H   0  0  0  0  0  0  0  0  0  0  0  0
    1.3260   -0.9713    0.0704 H   0  0  0  0  0  0  0  0  0  0  0  0
    0.5992    0.8956   -1.3896 H   0  0  0  0  0  0  0  0  0  0  0  0
    1.5565    2.0344   -0.4939 H   0  0  0  0  0  0  0  0  0  0  0  0
   -0.8197    2.7876    0.6461 H   0  0  0  0  0  0  0  0  0  0  0  0
    0.1987   -1.9455    2.1744 H   0  0  0  0  0  0  0  0  0  0  0  0
   -4.6446    1.2914   -2.0599 H   0  0  0  0  0  0  0  0  0  0  0  0
   -3.6291   -3.7519   -0.3500 H   0  0  0  0  0  0  0  0  0  0  0  0
    3.5300   -0.3554    0.8335 H   0  0  0  0  0  0  0  0  0  0  0  0
    2.5102   -0.4045    2.2551 H   0  0  0  0  0  0  0  0  0  0  0  0
    2.9358    1.1606    1.5537 H   0  0  0  0  0  0  0  0  0  0  0  0
    1.8035   -1.0298   -2.5469 H   0  0  0  0  0  0  0  0  0  0  0  0
    3.4124   -0.6557   -3.1138 H   0  0  0  0  0  0  0  0  0  0  0  0
    3.1904   -1.2361   -1.4567 H   0  0  0  0  0  0  0  0  0  0  0  0
    3.7326    2.4455   -1.1697 H   0  0  0  0  0  0  0  0  0  0  0  0
    4.4193    0.8781   -0.6842 H   0  0  0  0  0  0  0  0  0  0  0  0
    4.5233    1.4295   -2.3712 H   0  0  0  0  0  0  0  0  0  0  0  0
   -0.3834   -4.2693    2.3712 H   0  0  0  0  0  0  0  0  0  0  0  0
   -2.1742    4.3951   -0.4789 H   0  0  0  0  0  0  0  0  0  0  0  0
   -4.1114    3.6835   -1.8549 H   0  0  0  0  0  0  0  0  0  0  0  0
   -2.3168   -5.2098    1.1309 H   0  0  0  0  0  0  0  0  0  0  0  0
    0.1542   -2.5565   -0.7925 H   0  0  0  0  0  0  0  0  0  0  0  0
    0.5599   -1.3215   -1.8900 H   0  0  0  0  0  0  0  0  0  0  0  0
    1.0582   -1.0050    1.1141 H   0  0  0  0  0  0  0  0  0  0  0  0
    1.9544    0.5280   -1.3693 H   0  0  0  0  0  0  0  0  0  0  0  0
    0.9291    1.1666   -0.0975 H   0  0  0  0  0  0  0  0  0  0  0  0
   -0.5855   -0.4100   -3.2393 H   0  0  0  0  0  0  0  0  0  0  0  0
   -0.8790   -3.2360    0.7804 H   0  0  0  0  0  0  0  0  0  0  0  0
   -3.2791    3.1910   -1.2137 H   0  0  0  0  0  0  0  0  0  0  0  0
   -3.8190   -0.0250    3.1077 H   0  0  0  0  0  0  0  0  0  0  0  0
    2.2952   -2.9438    0.1398 H   0  0  0  0  0  0  0  0  0  0  0  0
    2.9685   -1.8896   -1.1109 H   0  0  0  0  0  0  0  0  0  0  0  0
    3.3951   -1.6480    0.5926 H   0  0  0  0  0  0  0  0  0  0  0  0
    3.5335    2.1464   -1.2790 H   0  0  0  0  0  0  0  0  0  0  0  0
    2.7074    3.0698   -0.0148 H   0  0  0  0  0  0  0  0  0  0  0  0
    4.3903    2.5360    0.1916 H   0  0  0  0  0  0  0  0  0  0  0  0
    1.8578    1.8995    1.9862 H   0  0  0  0  0  0  0  0  0  0  0  0
    2.4627    0.2656    2.3347 H   0  0  0  0  0  0  0  0  0  0  0  0
    3.5757    1.6144    2.3413 H   0  0  0  0  0  0  0  0  0  0  0  0
   -1.9316   -3.8519    2.8645 H   0  0  0  0  0  0  0  0  0  0  0  0
   -1.2127    1.5226   -4.5579 H   0  0  0  0  0  0  0  0  0  0  0  0
   -2.5751    3.3427   -3.5593 H   0  0  0  0  0  0  0  0  0  0  0  0
   -3.4262   -2.2690    4.0518 H   0  0  0  0  0  0  0  0  0  0  0  0
   -1.8622    1.1828    2.5636 H   0  0  0  0  0  0  0  0  0  0  0  0
    2.9313    0.6735   -1.8533 H   0  0  0  0  0  0  0  0  0  0  0  0
   -2.1722   -0.8548   -1.1015 H   0  0  0  0  0  0  0  0  0  0  0  0
    0.5116   -1.9299   -0.9254 H   0  0  0  0  0  0  0  0  0  0  0  0
   -0.6559    1.0420   -0.7266 H   0  0  0  0  0  0  0  0  0  0  0  0
    0.8740   -0.2780    1.3097 H   0  0  0  0  0  0  0  0  0  0  0  0
 10  9  1  0
 11  4  2  0
 12  3  2  0
 13  6  2  0
 14  5  2  0
 15  8  1  0
 16 10  1  0
 17 10  1  0
 18 12  1  0
 19 11  1  0
 20 19  2  0
 21 18  2  0
  5  2  1  0
 13 20  1  0
 14 21  1  0
  2  6  1  0
  3  1  1  0
  4  1  1  0
  5  3  1  0
  6  4  1  0
  7  1  1  0
  8  7  1  0
  9  8  1  0
 31 30  1  0
 32 25  2  0
 33 24  2  0
 34 27  2  0
 35 26  2  0
 36 29  1  0
 37 31  1  0
 38 31  1  0
 39 33  1  0
 40 32  1  0
 41 40  2  0
 42 39  2  0
 26 23  1  0
 34 41  1  0
 35 42  1  0
 23 27  1  0
 24 22  1  0
 25 22  1  0
 26 24  1  0
 27 25  1  0
 28 22  1  0
 29 28  1  0
 30 29  1  0
 49 44  2  0
 50 47  1  0
 51 48  1  0
 49 43  1  0
 51 52  1  0
 50 51  1  0
 52 45  1  0
 49 50  1  0
 52 46  2  0
  7 53  1  0
  7 54  1  0
  8 55  1  6
  9 56  1  0
  9 57  1  0
 11 58  1  0
 12 59  1  0
 13 60  1  0
 14 61  1  0
 15 62  1  0
 15 63  1  0
 15 64  1  0
 16 65  1  0
 16 66  1  0
 16 67  1  0
 17 68  1  0
 17 69  1  0
 17 70  1  0
 18 71  1  0
 19 72  1  0
 20 73  1  0
 21 74  1  0
 28 75  1  0
 28 76  1  0
 29 77  1  1
 30 78  1  0
 30 79  1  0
 32 80  1  0
 33 81  1  0
 34 82  1  0
 35 83  1  0
 36 84  1  0
 36 85  1  0
 36 86  1  0
 37 87  1  0
 37 88  1  0
 37 89  1  0
 38 90  1  0
 38 91  1  0
 38 92  1  0
 39 93  1  0
 40 94  1  0
 41 95  1  0
 42 96  1  0
 43 97  1  0
 45 98  1  0
 47 99  1  0
 48100  1  0
 50101  1  6
 51102  1  1
M  END
$$$$
