
     RDKit          3D

 27 29  0  0  0  0  0  0  0  0999 V2000
    0.0523    0.4981   -1.0665 N   0  0  0  0  0  0  0  0  0  0  0  0
   -1.1387    0.2352   -0.4977 C   0  0  0  0  0  0  0  0  0  0  0  0
    1.1827    0.2119   -0.3947 C   0  0  0  0  0  0  0  0  0  0  0  0
    1.1701   -0.3523    0.8932 C   0  0  0  0  0  0  0  0  0  0  0  0
   -1.2514   -0.3280    0.7858 C   0  0  0  0  0  0  0  0  0  0  0  0
   -2.3074    0.5293   -1.1907 C   0  0  0  0  0  0  0  0  0  0  0  0
    2.4139    0.4819   -0.9812 C   0  0  0  0  0  0  0  0  0  0  0  0
   -0.0718   -0.6196    1.4789 C   0  0  0  0  0  0  0  0  0  0  0  0
    2.3768   -0.6167    1.5600 C   0  0  0  0  0  0  0  0  0  0  0  0
   -2.5174   -0.5677    1.3429 C   0  0  0  0  0  0  0  0  0  0  0  0
   -3.5762    0.2418   -0.6746 C   0  0  0  0  0  0  0  0  0  0  0  0
    3.6260    0.1696   -0.3551 C   0  0  0  0  0  0  0  0  0  0  0  0
   -4.7275    0.6586   -1.3535 N   0  0  0  0  0  0  0  0  0  0  0  0
    4.8410    0.5627   -0.9291 N   0  0  0  0  0  0  0  0  0  0  0  0
   -3.6707   -0.2631    0.6202 C   0  0  0  0  0  0  0  0  0  0  0  0
    3.5954   -0.3360    0.9425 C   0  0  0  0  0  0  0  0  0  0  0  0
   -2.2154    0.9941   -2.1691 H   0  0  0  0  0  0  0  0  0  0  0  0
    2.4182    0.9476   -1.9635 H   0  0  0  0  0  0  0  0  0  0  0  0
   -0.1204   -1.0500    2.4761 H   0  0  0  0  0  0  0  0  0  0  0  0
    2.3757   -1.0282    2.5663 H   0  0  0  0  0  0  0  0  0  0  0  0
   -2.6136   -0.9781    2.3450 H   0  0  0  0  0  0  0  0  0  0  0  0
   -5.5681    0.1509   -1.0966 H   0  0  0  0  0  0  0  0  0  0  0  0
   -4.6098    0.7267   -2.3602 H   0  0  0  0  0  0  0  0  0  0  0  0
    5.6452    0.0385   -0.5992 H   0  0  0  0  0  0  0  0  0  0  0  0
    4.8143    0.6322   -1.9422 H   0  0  0  0  0  0  0  0  0  0  0  0
   -4.6430   -0.4237    1.0782 H   0  0  0  0  0  0  0  0  0  0  0  0
    4.5199   -0.5155    1.4846 H   0  0  0  0  0  0  0  0  0  0  0  0
  2  1  2  0
  3  1  1  0
  4  3  2  0
  5  2  1  0
  6  2  1  0
  7  3  1  0
  8  4  1  0
  9  4  1  0
 10  5  1  0
 11  6  2  0
 12  7  2  0
 13 11  1  0
 14 12  1  0
 15 11  1  0
 16 12  1  0
  5  8  2  0
  9 16  2  0
 10 15  2  0
  6 17  1  0
  7 18  1  0
  8 19  1  0
  9 20  1  0
 10 21  1  0
 13 22  1  0
 13 23  1  0
 14 24  1  0
 14 25  1  0
 15 26  1  0
 16 27  1  0
M  END
$$$$
