
     RDKit          3D

 27 29  0  0  0  0  0  0  0  0999 V2000
    0.1634    0.9639    0.5546 N   0  0  0  0  0  0  0  0  0  0  0  0
   -1.0810    0.5596    0.2400 C   0  0  0  0  0  0  0  0  0  0  0  0
    1.2194    0.2570    0.1117 C   0  0  0  0  0  0  0  0  0  0  0  0
    1.0742   -0.8980   -0.6771 C   0  0  0  0  0  0  0  0  0  0  0  0
   -1.3257   -0.5852   -0.5390 C   0  0  0  0  0  0  0  0  0  0  0  0
   -2.1730    1.2878    0.6981 C   0  0  0  0  0  0  0  0  0  0  0  0
    2.5056    0.6742    0.4345 C   0  0  0  0  0  0  0  0  0  0  0  0
   -0.2227   -1.3132   -0.9977 C   0  0  0  0  0  0  0  0  0  0  0  0
    2.2079   -1.5912   -1.1294 C   0  0  0  0  0  0  0  0  0  0  0  0
   -2.6432   -0.9758   -0.8256 C   0  0  0  0  0  0  0  0  0  0  0  0
   -3.4904    0.9461    0.3723 C   0  0  0  0  0  0  0  0  0  0  0  0
    3.6444   -0.0383    0.0417 C   0  0  0  0  0  0  0  0  0  0  0  0
   -4.5638    1.6368    0.9479 N   0  0  0  0  0  0  0  0  0  0  0  0
    4.9223    0.4778    0.2887 N   0  0  0  0  0  0  0  0  0  0  0  0
   -3.7168   -0.2221   -0.3520 C   0  0  0  0  0  0  0  0  0  0  0  0
    3.4847   -1.1470   -0.7863 C   0  0  0  0  0  0  0  0  0  0  0  0
   -1.9796    2.1540    1.3258 H   0  0  0  0  0  0  0  0  0  0  0  0
    2.6136    1.5849    1.0182 H   0  0  0  0  0  0  0  0  0  0  0  0
   -0.3735   -2.2028   -1.6042 H   0  0  0  0  0  0  0  0  0  0  0  0
    2.1051   -2.4704   -1.7606 H   0  0  0  0  0  0  0  0  0  0  0  0
   -2.8417   -1.8736   -1.4058 H   0  0  0  0  0  0  0  0  0  0  0  0
   -4.3506    2.6005    1.1883 H   0  0  0  0  0  0  0  0  0  0  0  0
   -5.4352    1.5515    0.4343 H   0  0  0  0  0  0  0  0  0  0  0  0
    5.6613   -0.2179    0.2700 H   0  0  0  0  0  0  0  0  0  0  0  0
    4.9734    1.0725    1.1107 H   0  0  0  0  0  0  0  0  0  0  0  0
   -4.7310   -0.5557   -0.5546 H   0  0  0  0  0  0  0  0  0  0  0  0
    4.3527   -1.6754   -1.1713 H   0  0  0  0  0  0  0  0  0  0  0  0
  2  1  2  0
  3  1  1  0
  4  3  2  0
  5  2  1  0
  6  2  1  0
  7  3  1  0
  8  4  1  0
  9  4  1  0
 10  5  1  0
 11  6  2  0
 12  7  2  0
 13 11  1  0
 14 12  1  0
 15 11  1  0
 16 12  1  0
  5  8  2  0
  9 16  2  0
 10 15  2  0
  6 17  1  0
  7 18  1  0
  8 19  1  0
  9 20  1  0
 10 21  1  0
 13 22  1  0
 13 23  1  0
 14 24  1  0
 14 25  1  0
 15 26  1  0
 16 27  1  0
M  END
$$$$
