
     RDKit          3D

 27 29  0  0  0  0  0  0  0  0999 V2000
    0.1152   -0.0689   -1.0784 N   0  0  0  0  0  0  0  0  0  0  0  0
    1.2050   -0.0110   -0.2911 C   0  0  0  0  0  0  0  0  0  0  0  0
   -1.1074   -0.0473   -0.5166 C   0  0  0  0  0  0  0  0  0  0  0  0
   -1.2948    0.0367    0.8744 C   0  0  0  0  0  0  0  0  0  0  0  0
    1.1175    0.0694    1.1100 C   0  0  0  0  0  0  0  0  0  0  0  0
    2.4689   -0.0349   -0.8697 C   0  0  0  0  0  0  0  0  0  0  0  0
   -2.2343   -0.1054   -1.3287 C   0  0  0  0  0  0  0  0  0  0  0  0
   -0.1570    0.0939    1.6862 C   0  0  0  0  0  0  0  0  0  0  0  0
   -2.5914    0.0736    1.4112 C   0  0  0  0  0  0  0  0  0  0  0  0
    2.2845    0.1099    1.8892 C   0  0  0  0  0  0  0  0  0  0  0  0
    3.6412    0.0644   -0.1118 C   0  0  0  0  0  0  0  0  0  0  0  0
   -3.5326   -0.1293   -0.8067 C   0  0  0  0  0  0  0  0  0  0  0  0
    4.8930   -0.0795   -0.7223 N   0  0  0  0  0  0  0  0  0  0  0  0
   -4.6402   -0.0717   -1.6614 N   0  0  0  0  0  0  0  0  0  0  0  0
    3.5375    0.0859    1.2772 C   0  0  0  0  0  0  0  0  0  0  0  0
   -3.7012    0.0120    0.5688 C   0  0  0  0  0  0  0  0  0  0  0  0
    2.5316   -0.1285   -1.9509 H   0  0  0  0  0  0  0  0  0  0  0  0
   -2.0846   -0.1388   -2.4049 H   0  0  0  0  0  0  0  0  0  0  0  0
   -0.2633    0.1575    2.7663 H   0  0  0  0  0  0  0  0  0  0  0  0
   -2.7452    0.1640    2.4837 H   0  0  0  0  0  0  0  0  0  0  0  0
    2.2259    0.1466    2.9742 H   0  0  0  0  0  0  0  0  0  0  0  0
    5.6621    0.3143   -0.1894 H   0  0  0  0  0  0  0  0  0  0  0  0
    4.9108    0.2094   -1.6960 H   0  0  0  0  0  0  0  0  0  0  0  0
   -4.4717   -0.4720   -2.5798 H   0  0  0  0  0  0  0  0  0  0  0  0
   -5.5026   -0.4096   -1.2462 H   0  0  0  0  0  0  0  0  0  0  0  0
    4.4312    0.0848    1.8954 H   0  0  0  0  0  0  0  0  0  0  0  0
   -4.6979    0.0747    0.9971 H   0  0  0  0  0  0  0  0  0  0  0  0
  2  1  2  0
  3  1  1  0
  4  3  2  0
  5  2  1  0
  6  2  1  0
  7  3  1  0
  8  4  1  0
  9  4  1  0
 10  5  1  0
 11  6  2  0
 12  7  2  0
 13 11  1  0
 14 12  1  0
 15 11  1  0
 16 12  1  0
  5  8  2  0
  9 16  2  0
 10 15  2  0
  6 17  1  0
  7 18  1  0
  8 19  1  0
  9 20  1  0
 10 21  1  0
 13 22  1  0
 13 23  1  0
 14 24  1  0
 14 25  1  0
 15 26  1  0
 16 27  1  0
M  END
$$$$
