
     RDKit          3D

 27 29  0  0  0  0  0  0  0  0999 V2000
    0.0881   -0.2073   -0.8540 N   0  0  0  0  0  0  0  0  0  0  0  0
    1.1915    0.0273   -0.1202 C   0  0  0  0  0  0  0  0  0  0  0  0
   -1.1169   -0.2029   -0.2548 C   0  0  0  0  0  0  0  0  0  0  0  0
   -1.2716    0.0369    1.1221 C   0  0  0  0  0  0  0  0  0  0  0  0
    1.1360    0.2821    1.2616 C   0  0  0  0  0  0  0  0  0  0  0  0
    2.4369    0.0248   -0.7379 C   0  0  0  0  0  0  0  0  0  0  0  0
   -2.2576   -0.4467   -1.0110 C   0  0  0  0  0  0  0  0  0  0  0  0
   -0.1200    0.2824    1.8775 C   0  0  0  0  0  0  0  0  0  0  0  0
   -2.5490    0.0136    1.7037 C   0  0  0  0  0  0  0  0  0  0  0  0
    2.3144    0.5384    1.9801 C   0  0  0  0  0  0  0  0  0  0  0  0
    3.6260    0.2196   -0.0260 C   0  0  0  0  0  0  0  0  0  0  0  0
   -3.5430   -0.4149   -0.4584 C   0  0  0  0  0  0  0  0  0  0  0  0
    4.8472    0.3242   -0.7029 N   0  0  0  0  0  0  0  0  0  0  0  0
   -4.6539   -0.7790   -1.2290 N   0  0  0  0  0  0  0  0  0  0  0  0
    3.5484    0.5269    1.3305 C   0  0  0  0  0  0  0  0  0  0  0  0
   -3.6736   -0.2325    0.9164 C   0  0  0  0  0  0  0  0  0  0  0  0
    2.4719   -0.1418   -1.8116 H   0  0  0  0  0  0  0  0  0  0  0  0
   -2.1302   -0.6622   -2.0689 H   0  0  0  0  0  0  0  0  0  0  0  0
   -0.2013    0.4737    2.9446 H   0  0  0  0  0  0  0  0  0  0  0  0
   -2.6750    0.1729    2.7718 H   0  0  0  0  0  0  0  0  0  0  0  0
    2.2780    0.7613    3.0436 H   0  0  0  0  0  0  0  0  0  0  0  0
    5.6600    0.1433   -0.1225 H   0  0  0  0  0  0  0  0  0  0  0  0
    4.8767   -0.1897   -1.5787 H   0  0  0  0  0  0  0  0  0  0  0  0
   -5.5382   -0.4302   -0.8728 H   0  0  0  0  0  0  0  0  0  0  0  0
   -4.5411   -0.6001   -2.2226 H   0  0  0  0  0  0  0  0  0  0  0  0
    4.4481    0.7595    1.8939 H   0  0  0  0  0  0  0  0  0  0  0  0
   -4.6520   -0.2797    1.3869 H   0  0  0  0  0  0  0  0  0  0  0  0
  2  1  2  0
  3  1  1  0
  4  3  2  0
  5  2  1  0
  6  2  1  0
  7  3  1  0
  8  4  1  0
  9  4  1  0
 10  5  1  0
 11  6  2  0
 12  7  2  0
 13 11  1  0
 14 12  1  0
 15 11  1  0
 16 12  1  0
  5  8  2  0
  9 16  2  0
 10 15  2  0
  6 17  1  0
  7 18  1  0
  8 19  1  0
  9 20  1  0
 10 21  1  0
 13 22  1  0
 13 23  1  0
 14 24  1  0
 14 25  1  0
 15 26  1  0
 16 27  1  0
M  END
$$$$
