
     RDKit          3D

 43 40  0  0  0  0  0  0  0  0999 V2000
   -3.2207    0.6042    0.3955 S   0  0  0  0  0  0  0  0  0  0  0  0
   -4.5754    0.3505   -0.0907 O   0  0  0  0  0  0  0  0  0  0  0  0
   -3.0049    0.2941    1.8050 O   0  0  0  0  0  0  0  0  0  0  0  0
   -2.6429    1.8679   -0.0583 O   0  0  0  0  0  0  0  0  0  0  0  0
    2.2507   -0.1981    0.4739 C   0  0  0  0  0  0  0  0  0  0  0  0
    1.9163   -0.7090    1.5360 O   0  0  0  0  0  0  0  0  0  0  0  0
   -2.2621   -0.6245   -0.4607 C   0  0  0  0  0  0  0  0  0  0  0  0
    1.3927    0.3724   -0.4371 N   0  0  0  0  0  0  0  0  0  0  0  0
   -0.8034   -0.7305   -0.0251 C   0  0  0  0  0  0  0  0  0  0  0  0
   -0.0263    0.5757   -0.1712 C   0  0  0  0  0  0  0  0  0  0  0  0
    3.6957   -0.1419    0.0520 C   0  0  0  0  0  0  0  0  0  0  0  0
   -3.7369   -0.0842    0.2703 S   0  0  0  0  0  0  0  0  0  0  0  0
   -3.6606    0.3971    1.6476 O   0  0  0  0  0  0  0  0  0  0  0  0
   -4.6871   -1.1718    0.0496 O   0  0  0  0  0  0  0  0  0  0  0  0
   -3.7505    0.9604   -0.7518 O   0  0  0  0  0  0  0  0  0  0  0  0
    2.7364   -0.0866    0.0108 C   0  0  0  0  0  0  0  0  0  0  0  0
    3.0781   -1.2587   -0.1095 O   0  0  0  0  0  0  0  0  0  0  0  0
   -2.1643   -0.8773    0.0226 C   0  0  0  0  0  0  0  0  0  0  0  0
    1.4304    0.3370    0.0726 N   0  0  0  0  0  0  0  0  0  0  0  0
   -1.0004    0.0845    0.2153 C   0  0  0  0  0  0  0  0  0  0  0  0
    0.3265   -0.5893   -0.0928 C   0  0  0  0  0  0  0  0  0  0  0  0
    3.7429    1.0302    0.0876 C   0  0  0  0  0  0  0  0  0  0  0  0
    0.0000    0.0000    0.0000 Ca  0  0  0  0  0 15  0  0  0  0  0  0
   -2.7583   -1.5866   -0.2902 H   0  0  0  0  0  0  0  0  0  0  0  0
   -2.3304   -0.3989   -1.5306 H   0  0  0  0  0  0  0  0  0  0  0  0
    1.7911    0.9711   -1.1462 H   0  0  0  0  0  0  0  0  0  0  0  0
   -0.7472   -1.0710    1.0156 H   0  0  0  0  0  0  0  0  0  0  0  0
   -0.3317   -1.5146   -0.6309 H   0  0  0  0  0  0  0  0  0  0  0  0
   -0.1158    1.1879    0.7324 H   0  0  0  0  0  0  0  0  0  0  0  0
   -0.3934    1.1508   -1.0273 H   0  0  0  0  0  0  0  0  0  0  0  0
    3.7956    0.0437   -1.0211 H   0  0  0  0  0  0  0  0  0  0  0  0
    4.1987    0.6571    0.6029 H   0  0  0  0  0  0  0  0  0  0  0  0
    4.1718   -1.1006    0.2762 H   0  0  0  0  0  0  0  0  0  0  0  0
   -2.1686   -1.2870   -0.9934 H   0  0  0  0  0  0  0  0  0  0  0  0
   -2.1024   -1.7099    0.7314 H   0  0  0  0  0  0  0  0  0  0  0  0
    1.2321    1.3209   -0.0586 H   0  0  0  0  0  0  0  0  0  0  0  0
   -0.9913    0.4658    1.2439 H   0  0  0  0  0  0  0  0  0  0  0  0
   -1.1224    0.9610   -0.4331 H   0  0  0  0  0  0  0  0  0  0  0  0
    0.4944   -1.4504    0.5639 H   0  0  0  0  0  0  0  0  0  0  0  0
    0.3514   -0.9479   -1.1281 H   0  0  0  0  0  0  0  0  0  0  0  0
    4.5495    0.7390    0.7663 H   0  0  0  0  0  0  0  0  0  0  0  0
    3.2938    1.9518    0.4684 H   0  0  0  0  0  0  0  0  0  0  0  0
    4.1489    1.2156   -0.9102 H   0  0  0  0  0  0  0  0  0  0  0  0
  2  1  1  0
  3  1  2  0
  4  1  2  0
  5  8  1  0
  6  5  2  0
  7  1  1  0
  8 10  1  0
  9  7  1  0
 10  9  1  0
 11  5  1  0
 13 12  1  0
 14 12  2  0
 15 12  2  0
 16 19  1  0
 17 16  2  0
 18 12  1  0
 19 21  1  0
 20 18  1  0
 21 20  1  0
 22 16  1  0
  7 24  1  0
  7 25  1  0
  8 26  1  0
  9 27  1  0
  9 28  1  0
 10 29  1  0
 10 30  1  0
 11 31  1  0
 11 32  1  0
 11 33  1  0
 18 34  1  0
 18 35  1  0
 19 36  1  0
 20 37  1  0
 20 38  1  0
 21 39  1  0
 21 40  1  0
 22 41  1  0
 22 42  1  0
 22 43  1  0
M  CHG  3   2  -1  13  -1  23   2
M  END
$$$$
