
     RDKit          3D

 43 40  0  0  0  0  0  0  0  0999 V2000
   -3.5294    1.2436    0.2063 S   0  0  0  0  0  0  0  0  0  0  0  0
   -3.6130    1.0549   -1.2401 O   0  0  0  0  0  0  0  0  0  0  0  0
   -2.9994    2.5369    0.6335 O   0  0  0  0  0  0  0  0  0  0  0  0
   -4.6935    0.7785    0.9564 O   0  0  0  0  0  0  0  0  0  0  0  0
    2.5273   -1.0525    0.0625 C   0  0  0  0  0  0  0  0  0  0  0  0
    2.5208   -2.0871    0.7219 O   0  0  0  0  0  0  0  0  0  0  0  0
   -2.2591    0.1004    0.6992 C   0  0  0  0  0  0  0  0  0  0  0  0
    1.4279   -0.2505   -0.1275 N   0  0  0  0  0  0  0  0  0  0  0  0
   -0.9324    0.3854    0.0096 C   0  0  0  0  0  0  0  0  0  0  0  0
    0.1652   -0.5291    0.5296 C   0  0  0  0  0  0  0  0  0  0  0  0
    3.7764   -0.5522   -0.6128 C   0  0  0  0  0  0  0  0  0  0  0  0
   -3.2631    0.2025    0.3428 S   0  0  0  0  0  0  0  0  0  0  0  0
   -4.5823   -0.2566   -0.0875 O   0  0  0  0  0  0  0  0  0  0  0  0
   -2.7500   -0.4679    1.5361 O   0  0  0  0  0  0  0  0  0  0  0  0
   -3.0765    1.6495    0.3158 O   0  0  0  0  0  0  0  0  0  0  0  0
    2.2409    0.5504   -0.0700 C   0  0  0  0  0  0  0  0  0  0  0  0
    1.9030    1.6764   -0.4136 O   0  0  0  0  0  0  0  0  0  0  0  0
   -2.2016   -0.3868   -0.9564 C   0  0  0  0  0  0  0  0  0  0  0  0
    1.3810   -0.4661    0.2748 N   0  0  0  0  0  0  0  0  0  0  0  0
   -0.7552    0.0937   -0.8820 C   0  0  0  0  0  0  0  0  0  0  0  0
   -0.0563   -0.2738    0.4249 C   0  0  0  0  0  0  0  0  0  0  0  0
    3.6931    0.1593    0.0150 C   0  0  0  0  0  0  0  0  0  0  0  0
    0.0000    0.0000    0.0000 Ca  0  0  0  0  0 15  0  0  0  0  0  0
   -2.6137   -0.9075    0.4578 H   0  0  0  0  0  0  0  0  0  0  0  0
   -2.1603    0.1812    1.7871 H   0  0  0  0  0  0  0  0  0  0  0  0
    1.5600    0.6803   -0.5012 H   0  0  0  0  0  0  0  0  0  0  0  0
   -0.6394    1.4308    0.1677 H   0  0  0  0  0  0  0  0  0  0  0  0
   -1.0361    0.2584   -1.0752 H   0  0  0  0  0  0  0  0  0  0  0  0
   -0.0863   -1.5832    0.3650 H   0  0  0  0  0  0  0  0  0  0  0  0
    0.3156   -0.3849    1.6056 H   0  0  0  0  0  0  0  0  0  0  0  0
    3.5756    0.3149   -1.2497 H   0  0  0  0  0  0  0  0  0  0  0  0
    4.5056   -0.2670    0.1520 H   0  0  0  0  0  0  0  0  0  0  0  0
    4.1883   -1.3512   -1.2381 H   0  0  0  0  0  0  0  0  0  0  0  0
   -2.2464   -1.4813   -0.9379 H   0  0  0  0  0  0  0  0  0  0  0  0
   -2.6433   -0.0505   -1.9012 H   0  0  0  0  0  0  0  0  0  0  0  0
    1.7659   -1.2588    0.7684 H   0  0  0  0  0  0  0  0  0  0  0  0
   -0.7145    1.1804   -1.0211 H   0  0  0  0  0  0  0  0  0  0  0  0
   -0.2148   -0.3453   -1.7302 H   0  0  0  0  0  0  0  0  0  0  0  0
   -0.4292   -1.2294    0.8076 H   0  0  0  0  0  0  0  0  0  0  0  0
   -0.2152    0.4989    1.1845 H   0  0  0  0  0  0  0  0  0  0  0  0
    4.2283    0.5798   -0.8413 H   0  0  0  0  0  0  0  0  0  0  0  0
    4.1167    0.5523    0.9429 H   0  0  0  0  0  0  0  0  0  0  0  0
    3.8193   -0.9266   -0.0072 H   0  0  0  0  0  0  0  0  0  0  0  0
  2  1  1  0
  3  1  2  0
  4  1  2  0
  5  8  1  0
  6  5  2  0
  7  1  1  0
  8 10  1  0
  9  7  1  0
 10  9  1  0
 11  5  1  0
 13 12  1  0
 14 12  2  0
 15 12  2  0
 16 19  1  0
 17 16  2  0
 18 12  1  0
 19 21  1  0
 20 18  1  0
 21 20  1  0
 22 16  1  0
  7 24  1  0
  7 25  1  0
  8 26  1  0
  9 27  1  0
  9 28  1  0
 10 29  1  0
 10 30  1  0
 11 31  1  0
 11 32  1  0
 11 33  1  0
 18 34  1  0
 18 35  1  0
 19 36  1  0
 20 37  1  0
 20 38  1  0
 21 39  1  0
 21 40  1  0
 22 41  1  0
 22 42  1  0
 22 43  1  0
M  CHG  3   2  -1  13  -1  23   2
M  END
$$$$
