
     RDKit          3D

 43 40  0  0  0  0  0  0  0  0999 V2000
   -2.0232   -1.3539    0.6945 S   0  0  0  0  0  0  0  0  0  0  0  0
   -3.1561   -0.4389    0.7989 O   0  0  0  0  0  0  0  0  0  0  0  0
   -2.3763   -2.7538    0.4741 O   0  0  0  0  0  0  0  0  0  0  0  0
   -0.9650   -1.1466    1.6866 O   0  0  0  0  0  0  0  0  0  0  0  0
    1.9045    0.7312    0.1916 C   0  0  0  0  0  0  0  0  0  0  0  0
    2.2552    1.4178   -0.7648 O   0  0  0  0  0  0  0  0  0  0  0  0
   -1.2493   -0.8911   -0.8378 C   0  0  0  0  0  0  0  0  0  0  0  0
    0.6446    0.7395    0.7265 N   0  0  0  0  0  0  0  0  0  0  0  0
   -1.0752    0.6118   -1.0566 C   0  0  0  0  0  0  0  0  0  0  0  0
   -0.4781    1.4033    0.1066 C   0  0  0  0  0  0  0  0  0  0  0  0
    2.8623   -0.1739    0.9179 C   0  0  0  0  0  0  0  0  0  0  0  0
    3.6087    0.6152    0.8300 S   0  0  0  0  0  0  0  0  0  0  0  0
    4.8093   -0.1536    0.5092 O   0  0  0  0  0  0  0  0  0  0  0  0
    3.5075    1.9089    0.1577 O   0  0  0  0  0  0  0  0  0  0  0  0
    3.2410    0.6197    2.2446 O   0  0  0  0  0  0  0  0  0  0  0  0
   -2.5986   -0.5115   -0.6512 C   0  0  0  0  0  0  0  0  0  0  0  0
   -2.6046   -1.4521   -1.4391 O   0  0  0  0  0  0  0  0  0  0  0  0
    2.3131   -0.3410    0.0748 C   0  0  0  0  0  0  0  0  0  0  0  0
   -1.4632    0.0115   -0.0822 N   0  0  0  0  0  0  0  0  0  0  0  0
    0.9409    0.2813    0.2936 C   0  0  0  0  0  0  0  0  0  0  0  0
   -0.1578   -0.5799   -0.3070 C   0  0  0  0  0  0  0  0  0  0  0  0
   -3.8675    0.1895   -0.2442 C   0  0  0  0  0  0  0  0  0  0  0  0
    0.0000    0.0000    0.0000 Ca  0  0  0  0  0 15  0  0  0  0  0  0
   -0.2849   -1.4094   -0.8810 H   0  0  0  0  0  0  0  0  0  0  0  0
   -1.8728   -1.2935   -1.6445 H   0  0  0  0  0  0  0  0  0  0  0  0
    0.3683   -0.0098    1.3760 H   0  0  0  0  0  0  0  0  0  0  0  0
   -0.4405    0.7442   -1.9426 H   0  0  0  0  0  0  0  0  0  0  0  0
   -2.0446    1.0591   -1.3101 H   0  0  0  0  0  0  0  0  0  0  0  0
   -1.2264    1.5701    0.8885 H   0  0  0  0  0  0  0  0  0  0  0  0
   -0.1543    2.3875   -0.2506 H   0  0  0  0  0  0  0  0  0  0  0  0
    3.5946   -0.5686    0.2075 H   0  0  0  0  0  0  0  0  0  0  0  0
    3.3768    0.3962    1.6959 H   0  0  0  0  0  0  0  0  0  0  0  0
    2.3404   -1.0212    1.3720 H   0  0  0  0  0  0  0  0  0  0  0  0
    2.3589   -1.3453    0.5096 H   0  0  0  0  0  0  0  0  0  0  0  0
    2.5419   -0.4156   -0.9935 H   0  0  0  0  0  0  0  0  0  0  0  0
   -1.5481    0.6824    0.6699 H   0  0  0  0  0  0  0  0  0  0  0  0
    0.7533    0.4119    1.3663 H   0  0  0  0  0  0  0  0  0  0  0  0
    0.9059    1.2858   -0.1451 H   0  0  0  0  0  0  0  0  0  0  0  0
   -0.1652   -1.5773    0.1481 H   0  0  0  0  0  0  0  0  0  0  0  0
   -0.0169   -0.7058   -1.3863 H   0  0  0  0  0  0  0  0  0  0  0  0
   -4.2383    0.7747   -1.0892 H   0  0  0  0  0  0  0  0  0  0  0  0
   -4.6123   -0.5577    0.0443 H   0  0  0  0  0  0  0  0  0  0  0  0
   -3.7080    0.8591    0.6054 H   0  0  0  0  0  0  0  0  0  0  0  0
  2  1  1  0
  3  1  2  0
  4  1  2  0
  5  8  1  0
  6  5  2  0
  7  1  1  0
  8 10  1  0
  9  7  1  0
 10  9  1  0
 11  5  1  0
 13 12  1  0
 14 12  2  0
 15 12  2  0
 16 19  1  0
 17 16  2  0
 18 12  1  0
 19 21  1  0
 20 18  1  0
 21 20  1  0
 22 16  1  0
  7 24  1  0
  7 25  1  0
  8 26  1  0
  9 27  1  0
  9 28  1  0
 10 29  1  0
 10 30  1  0
 11 31  1  0
 11 32  1  0
 11 33  1  0
 18 34  1  0
 18 35  1  0
 19 36  1  0
 20 37  1  0
 20 38  1  0
 21 39  1  0
 21 40  1  0
 22 41  1  0
 22 42  1  0
 22 43  1  0
M  CHG  3   2  -1  13  -1  23   2
M  END
$$$$
