
     RDKit          3D

 28 28  0  0  0  0  0  0  0  0999 V2000
    1.7135    0.1108    0.1338 C   0  0  0  0  0  0  0  0  0  0  0  0
    2.0945    0.9486    1.0213 N   0  0  0  0  0  0  0  0  0  0  0  0
    0.3799   -0.0804   -0.1085 N   0  0  0  0  0  0  0  0  0  0  0  0
    2.3864   -0.7281   -0.7099 N   0  0  0  0  0  0  0  0  0  0  0  0
   -0.6209    0.5829    0.7100 C   0  0  0  0  0  0  0  0  0  0  0  0
   -1.9964    0.1749    0.2365 C   0  0  0  0  0  0  0  0  0  0  0  0
    3.4850    1.1504    1.3559 C   0  0  0  0  0  0  0  0  0  0  0  0
    3.7840   -0.6370   -1.0540 C   0  0  0  0  0  0  0  0  0  0  0  0
   -2.5319    0.7233   -0.9385 C   0  0  0  0  0  0  0  0  0  0  0  0
   -2.7427   -0.7803    0.9415 C   0  0  0  0  0  0  0  0  0  0  0  0
   -3.7940    0.3356   -1.3902 C   0  0  0  0  0  0  0  0  0  0  0  0
   -4.0053   -1.1666    0.4879 C   0  0  0  0  0  0  0  0  0  0  0  0
   -4.5306   -0.6078   -0.6761 C   0  0  0  0  0  0  0  0  0  0  0  0
    0.1528   -1.0566   -0.2518 H   0  0  0  0  0  0  0  0  0  0  0  0
    1.8218   -0.9205   -1.5303 H   0  0  0  0  0  0  0  0  0  0  0  0
   -0.5236    1.6731    0.6371 H   0  0  0  0  0  0  0  0  0  0  0  0
   -0.4937    0.3119    1.7653 H   0  0  0  0  0  0  0  0  0  0  0  0
    3.9650    0.2226    1.6800 H   0  0  0  0  0  0  0  0  0  0  0  0
    4.0409    1.6050    0.5314 H   0  0  0  0  0  0  0  0  0  0  0  0
    3.5475    1.8457    2.1996 H   0  0  0  0  0  0  0  0  0  0  0  0
    4.0106   -1.3652   -1.8397 H   0  0  0  0  0  0  0  0  0  0  0  0
    4.4240   -0.8791   -0.2024 H   0  0  0  0  0  0  0  0  0  0  0  0
    4.0320    0.3551   -1.4419 H   0  0  0  0  0  0  0  0  0  0  0  0
   -1.9594    1.4540   -1.5066 H   0  0  0  0  0  0  0  0  0  0  0  0
   -2.3451   -1.2279    1.8499 H   0  0  0  0  0  0  0  0  0  0  0  0
   -4.2011    0.7686   -2.3001 H   0  0  0  0  0  0  0  0  0  0  0  0
   -4.5794   -1.9041    1.0428 H   0  0  0  0  0  0  0  0  0  0  0  0
   -5.5138   -0.9090   -1.0280 H   0  0  0  0  0  0  0  0  0  0  0  0
  2  1  2  0
  3  1  1  0
  4  1  1  0
  5  3  1  0
  6  5  1  0
  7  2  1  0
  8  4  1  0
  9  6  2  0
 10  6  1  0
 11  9  1  0
 12 10  2  0
 13 12  1  0
 11 13  2  0
  3 14  1  0
  4 15  1  0
  5 16  1  0
  5 17  1  0
  7 18  1  0
  7 19  1  0
  7 20  1  0
  8 21  1  0
  8 22  1  0
  8 23  1  0
  9 24  1  0
 10 25  1  0
 11 26  1  0
 12 27  1  0
 13 28  1  0
M  END
$$$$
