
     RDKit          3D

 28 28  0  0  0  0  0  0  0  0999 V2000
    1.4177   -0.8622   -0.6011 C   0  0  0  0  0  0  0  0  0  0  0  0
    1.1719   -1.9107   -1.2902 N   0  0  0  0  0  0  0  0  0  0  0  0
    0.3932   -0.0647   -0.1673 N   0  0  0  0  0  0  0  0  0  0  0  0
    2.5736   -0.2945   -0.1427 N   0  0  0  0  0  0  0  0  0  0  0  0
   -0.9890   -0.4546   -0.3883 C   0  0  0  0  0  0  0  0  0  0  0  0
   -1.8997    0.5921    0.2097 C   0  0  0  0  0  0  0  0  0  0  0  0
    2.2086   -2.8160   -1.7282 C   0  0  0  0  0  0  0  0  0  0  0  0
    3.9035   -0.5813   -0.6210 C   0  0  0  0  0  0  0  0  0  0  0  0
   -2.0975    1.8164   -0.4461 C   0  0  0  0  0  0  0  0  0  0  0  0
   -2.5321    0.3721    1.4419 C   0  0  0  0  0  0  0  0  0  0  0  0
   -2.9230    2.7937    0.1114 C   0  0  0  0  0  0  0  0  0  0  0  0
   -3.3577    1.3511    1.9976 C   0  0  0  0  0  0  0  0  0  0  0  0
   -3.5538    2.5600    1.3320 C   0  0  0  0  0  0  0  0  0  0  0  0
    0.5382    0.2638    0.7794 H   0  0  0  0  0  0  0  0  0  0  0  0
    2.4416    0.7025   -0.0105 H   0  0  0  0  0  0  0  0  0  0  0  0
   -1.2011   -0.5465   -1.4606 H   0  0  0  0  0  0  0  0  0  0  0  0
   -1.1899   -1.4304    0.0707 H   0  0  0  0  0  0  0  0  0  0  0  0
    2.7847   -3.2132   -0.8875 H   0  0  0  0  0  0  0  0  0  0  0  0
    1.7415   -3.6755   -2.2205 H   0  0  0  0  0  0  0  0  0  0  0  0
    2.8704   -2.3525   -2.4648 H   0  0  0  0  0  0  0  0  0  0  0  0
    4.2179   -1.5923   -0.3518 H   0  0  0  0  0  0  0  0  0  0  0  0
    3.9735   -0.4404   -1.7035 H   0  0  0  0  0  0  0  0  0  0  0  0
    4.6127    0.1083   -0.1515 H   0  0  0  0  0  0  0  0  0  0  0  0
   -1.6016    2.0102   -1.3953 H   0  0  0  0  0  0  0  0  0  0  0  0
   -2.3862   -0.5648    1.9755 H   0  0  0  0  0  0  0  0  0  0  0  0
   -3.0720    3.7377   -0.4062 H   0  0  0  0  0  0  0  0  0  0  0  0
   -3.8480    1.1706    2.9508 H   0  0  0  0  0  0  0  0  0  0  0  0
   -4.1974    3.3212    1.7652 H   0  0  0  0  0  0  0  0  0  0  0  0
  2  1  2  0
  3  1  1  0
  4  1  1  0
  5  3  1  0
  6  5  1  0
  7  2  1  0
  8  4  1  0
  9  6  2  0
 10  6  1  0
 11  9  1  0
 12 10  2  0
 13 12  1  0
 11 13  2  0
  3 14  1  0
  4 15  1  0
  5 16  1  0
  5 17  1  0
  7 18  1  0
  7 19  1  0
  7 20  1  0
  8 21  1  0
  8 22  1  0
  8 23  1  0
  9 24  1  0
 10 25  1  0
 11 26  1  0
 12 27  1  0
 13 28  1  0
M  END
$$$$
