
     RDKit          3D

 13 13  0  0  0  0  0  0  0  0999 V2000
    2.1475    0.0961    0.1999 C   0  0  0  0  0  0  0  0  0  0  0  0
    2.6022   -1.0625   -0.1796 N   0  0  0  0  0  0  0  0  0  0  0  0
    0.7389    0.2541    0.1843 N   0  0  0  0  0  0  0  0  0  0  0  0
    3.0367    1.1456    0.6086 N   0  0  0  0  0  0  0  0  0  0  0  0
   -0.0176   -0.3986   -0.8722 C   0  0  0  0  0  0  0  0  0  0  0  0
   -1.4847   -0.1300   -0.7404 C   0  0  0  0  0  0  0  0  0  0  0  0
    4.0291   -1.3150   -0.1959 C   0  0  0  0  0  0  0  0  0  0  0  0
    4.4864    0.9329    0.5560 C   0  0  0  0  0  0  0  0  0  0  0  0
   -2.0960    0.9503   -1.3422 C   0  0  0  0  0  0  0  0  0  0  0  0
   -2.2139   -1.0392    0.0323 C   0  0  0  0  0  0  0  0  0  0  0  0
   -3.4620    1.1302   -1.1718 C   0  0  0  0  0  0  0  0  0  0  0  0
   -3.5635   -0.8107    0.1662 C   0  0  0  0  0  0  0  0  0  0  0  0
   -4.2030    0.2469   -0.4142 C   0  0  0  0  0  0  0  0  0  0  0  0
  2  1  2  0
  3  1  1  0
  4  1  1  0
  5  3  1  0
  6  5  1  0
  7  2  1  0
  8  4  1  0
  9  6  2  0
 10  6  1  0
 11  9  1  0
 12 10  2  0
 13 12  1  0
 11 13  2  0
M  END
