
     RDKit          3D

 28 28  0  0  0  0  0  0  0  0999 V2000
   -1.7202   -0.1050    0.0045 C   0  0  0  0  0  0  0  0  0  0  0  0
   -2.1955   -0.6224    1.0726 N   0  0  0  0  0  0  0  0  0  0  0  0
   -0.3676    0.0349   -0.1529 N   0  0  0  0  0  0  0  0  0  0  0  0
   -2.2977    0.3982   -1.1277 N   0  0  0  0  0  0  0  0  0  0  0  0
    0.5396   -0.3011    0.9313 C   0  0  0  0  0  0  0  0  0  0  0  0
    1.9589   -0.0293    0.4904 C   0  0  0  0  0  0  0  0  0  0  0  0
   -3.6142   -0.7442    1.3146 C   0  0  0  0  0  0  0  0  0  0  0  0
   -3.6529    0.1622   -1.5610 C   0  0  0  0  0  0  0  0  0  0  0  0
    2.6342    1.1226    0.9191 C   0  0  0  0  0  0  0  0  0  0  0  0
    2.6094   -0.9119   -0.3847 C   0  0  0  0  0  0  0  0  0  0  0  0
    3.9390    1.3770    0.4928 C   0  0  0  0  0  0  0  0  0  0  0  0
    3.9136   -0.6555   -0.8098 C   0  0  0  0  0  0  0  0  0  0  0  0
    4.5782    0.4878   -0.3697 C   0  0  0  0  0  0  0  0  0  0  0  0
   -0.1213    0.9189   -0.5809 H   0  0  0  0  0  0  0  0  0  0  0  0
   -1.6504    0.3316   -1.9058 H   0  0  0  0  0  0  0  0  0  0  0  0
    0.3059    0.2919    1.8240 H   0  0  0  0  0  0  0  0  0  0  0  0
    0.4440   -1.3588    1.2056 H   0  0  0  0  0  0  0  0  0  0  0  0
   -4.1196    0.2248    1.2719 H   0  0  0  0  0  0  0  0  0  0  0  0
   -4.0849   -1.4555    0.6305 H   0  0  0  0  0  0  0  0  0  0  0  0
   -3.7673   -1.1320    2.3273 H   0  0  0  0  0  0  0  0  0  0  0  0
   -3.7931    0.5918   -2.5583 H   0  0  0  0  0  0  0  0  0  0  0  0
   -3.8655   -0.9085   -1.6297 H   0  0  0  0  0  0  0  0  0  0  0  0
   -4.3758    0.6479   -0.9014 H   0  0  0  0  0  0  0  0  0  0  0  0
    2.1477    1.8277    1.5897 H   0  0  0  0  0  0  0  0  0  0  0  0
    2.0943   -1.8024   -0.7399 H   0  0  0  0  0  0  0  0  0  0  0  0
    4.4572    2.2697    0.8335 H   0  0  0  0  0  0  0  0  0  0  0  0
    4.4098   -1.3472   -1.4855 H   0  0  0  0  0  0  0  0  0  0  0  0
    5.5941    0.6868   -0.7005 H   0  0  0  0  0  0  0  0  0  0  0  0
  2  1  2  0
  3  1  1  0
  4  1  1  0
  5  3  1  0
  6  5  1  0
  7  2  1  0
  8  4  1  0
  9  6  2  0
 10  6  1  0
 11  9  1  0
 12 10  2  0
 13 12  1  0
 11 13  2  0
  3 14  1  0
  4 15  1  0
  5 16  1  0
  5 17  1  0
  7 18  1  0
  7 19  1  0
  7 20  1  0
  8 21  1  0
  8 22  1  0
  8 23  1  0
  9 24  1  0
 10 25  1  0
 11 26  1  0
 12 27  1  0
 13 28  1  0
M  END
$$$$
