
     RDKit          3D

 28 28  0  0  0  0  0  0  0  0999 V2000
   -1.7022   -0.1461   -0.2263 C   0  0  0  0  0  0  0  0  0  0  0  0
   -2.1427    0.5256   -1.2210 N   0  0  0  0  0  0  0  0  0  0  0  0
   -0.3703   -0.1213    0.0888 N   0  0  0  0  0  0  0  0  0  0  0  0
   -2.3021   -0.9706    0.6841 N   0  0  0  0  0  0  0  0  0  0  0  0
    0.5761    0.5788   -0.7631 C   0  0  0  0  0  0  0  0  0  0  0  0
    1.9657    0.4220   -0.1913 C   0  0  0  0  0  0  0  0  0  0  0  0
   -3.5272    0.4930   -1.6311 C   0  0  0  0  0  0  0  0  0  0  0  0
   -3.7161   -1.0370    0.9603 C   0  0  0  0  0  0  0  0  0  0  0  0
    2.8707   -0.4930   -0.7484 C   0  0  0  0  0  0  0  0  0  0  0  0
    2.3578    1.1679    0.9303 C   0  0  0  0  0  0  0  0  0  0  0  0
    4.1468   -0.6463   -0.2033 C   0  0  0  0  0  0  0  0  0  0  0  0
    3.6338    1.0128    1.4737 C   0  0  0  0  0  0  0  0  0  0  0  0
    4.5280    0.1071    0.9058 C   0  0  0  0  0  0  0  0  0  0  0  0
   -0.0229   -1.0342    0.3555 H   0  0  0  0  0  0  0  0  0  0  0  0
   -1.7626   -0.9893    1.5429 H   0  0  0  0  0  0  0  0  0  0  0  0
    0.3300    1.6460   -0.8238 H   0  0  0  0  0  0  0  0  0  0  0  0
    0.5443    0.1761   -1.7829 H   0  0  0  0  0  0  0  0  0  0  0  0
   -3.8602   -0.5230   -1.8614 H   0  0  0  0  0  0  0  0  0  0  0  0
   -3.6357    1.0738   -2.5532 H   0  0  0  0  0  0  0  0  0  0  0  0
   -4.1833    0.9553   -0.8887 H   0  0  0  0  0  0  0  0  0  0  0  0
   -3.8860   -1.6969    1.8173 H   0  0  0  0  0  0  0  0  0  0  0  0
   -4.2703   -1.4598    0.1191 H   0  0  0  0  0  0  0  0  0  0  0  0
   -4.1155   -0.0519    1.2178 H   0  0  0  0  0  0  0  0  0  0  0  0
    2.5869   -1.0905   -1.6121 H   0  0  0  0  0  0  0  0  0  0  0  0
    1.6625    1.8708    1.3851 H   0  0  0  0  0  0  0  0  0  0  0  0
    4.8439   -1.3542   -0.6441 H   0  0  0  0  0  0  0  0  0  0  0  0
    3.9287    1.5976    2.3410 H   0  0  0  0  0  0  0  0  0  0  0  0
    5.5218   -0.0129    1.3289 H   0  0  0  0  0  0  0  0  0  0  0  0
  2  1  2  0
  3  1  1  0
  4  1  1  0
  5  3  1  0
  6  5  1  0
  7  2  1  0
  8  4  1  0
  9  6  2  0
 10  6  1  0
 11  9  1  0
 12 10  2  0
 13 12  1  0
 11 13  2  0
  3 14  1  0
  4 15  1  0
  5 16  1  0
  5 17  1  0
  7 18  1  0
  7 19  1  0
  7 20  1  0
  8 21  1  0
  8 22  1  0
  8 23  1  0
  9 24  1  0
 10 25  1  0
 11 26  1  0
 12 27  1  0
 13 28  1  0
M  END
$$$$
