
     RDKit          3D

 28 28  0  0  0  0  0  0  0  0999 V2000
    1.7194   -0.0884   -0.0073 C   0  0  0  0  0  0  0  0  0  0  0  0
    2.2043   -1.1025    0.6019 N   0  0  0  0  0  0  0  0  0  0  0  0
    0.3675    0.1256   -0.0251 N   0  0  0  0  0  0  0  0  0  0  0  0
    2.2841    0.9308   -0.7219 N   0  0  0  0  0  0  0  0  0  0  0  0
   -0.5412   -0.8500    0.5529 C   0  0  0  0  0  0  0  0  0  0  0  0
   -1.9622   -0.3695    0.3726 C   0  0  0  0  0  0  0  0  0  0  0  0
    3.6163   -1.4064    0.6068 C   0  0  0  0  0  0  0  0  0  0  0  0
    3.6742    1.3139   -0.6927 C   0  0  0  0  0  0  0  0  0  0  0  0
   -2.7795   -0.9102   -0.6305 C   0  0  0  0  0  0  0  0  0  0  0  0
   -2.4726    0.6523    1.1872 C   0  0  0  0  0  0  0  0  0  0  0  0
   -4.0855   -0.4482   -0.8038 C   0  0  0  0  0  0  0  0  0  0  0  0
   -3.7783    1.1126    1.0121 C   0  0  0  0  0  0  0  0  0  0  0  0
   -4.5844    0.5612    0.0180 C   0  0  0  0  0  0  0  0  0  0  0  0
    0.0421    0.4439   -0.9295 H   0  0  0  0  0  0  0  0  0  0  0  0
    1.6816    1.7465   -0.6975 H   0  0  0  0  0  0  0  0  0  0  0  0
   -0.3395   -0.9842    1.6227 H   0  0  0  0  0  0  0  0  0  0  0  0
   -0.4130   -1.8263    0.0697 H   0  0  0  0  0  0  0  0  0  0  0  0
    3.7691   -2.3647    1.1144 H   0  0  0  0  0  0  0  0  0  0  0  0
    4.1919   -0.6607    1.1618 H   0  0  0  0  0  0  0  0  0  0  0  0
    4.0115   -1.5235   -0.4063 H   0  0  0  0  0  0  0  0  0  0  0  0
    3.8072    2.2347   -1.2701 H   0  0  0  0  0  0  0  0  0  0  0  0
    4.0079    1.5141    0.3296 H   0  0  0  0  0  0  0  0  0  0  0  0
    4.3099    0.5548   -1.1543 H   0  0  0  0  0  0  0  0  0  0  0  0
   -2.4036   -1.6963   -1.2819 H   0  0  0  0  0  0  0  0  0  0  0  0
   -1.8466    1.0942    1.9601 H   0  0  0  0  0  0  0  0  0  0  0  0
   -4.7141   -0.8760   -1.5805 H   0  0  0  0  0  0  0  0  0  0  0  0
   -4.1651    1.9026    1.6505 H   0  0  0  0  0  0  0  0  0  0  0  0
   -5.6014    0.9196   -0.1177 H   0  0  0  0  0  0  0  0  0  0  0  0
  2  1  2  0
  3  1  1  0
  4  1  1  0
  5  3  1  0
  6  5  1  0
  7  2  1  0
  8  4  1  0
  9  6  2  0
 10  6  1  0
 11  9  1  0
 12 10  2  0
 13 12  1  0
 11 13  2  0
  3 14  1  0
  4 15  1  0
  5 16  1  0
  5 17  1  0
  7 18  1  0
  7 19  1  0
  7 20  1  0
  8 21  1  0
  8 22  1  0
  8 23  1  0
  9 24  1  0
 10 25  1  0
 11 26  1  0
 12 27  1  0
 13 28  1  0
M  END
$$$$
