
     RDKit          3D

 28 28  0  0  0  0  0  0  0  0999 V2000
    1.7248    0.4870   -0.0530 C   0  0  0  0  0  0  0  0  0  0  0  0
    1.7652    0.5501   -1.3342 N   0  0  0  0  0  0  0  0  0  0  0  0
    0.7816    1.1474    0.6826 N   0  0  0  0  0  0  0  0  0  0  0  0
    2.5654   -0.1817    0.7926 N   0  0  0  0  0  0  0  0  0  0  0  0
   -0.3507    1.8109    0.0579 C   0  0  0  0  0  0  0  0  0  0  0  0
   -1.5630    0.9100    0.0966 C   0  0  0  0  0  0  0  0  0  0  0  0
    2.8606   -0.0927   -2.0394 C   0  0  0  0  0  0  0  0  0  0  0  0
    2.5642   -1.6314    0.8244 C   0  0  0  0  0  0  0  0  0  0  0  0
   -2.5258    1.0430    1.1078 C   0  0  0  0  0  0  0  0  0  0  0  0
   -1.7215   -0.1009   -0.8625 C   0  0  0  0  0  0  0  0  0  0  0  0
   -3.6312    0.1911    1.1479 C   0  0  0  0  0  0  0  0  0  0  0  0
   -2.8265   -0.9517   -0.8203 C   0  0  0  0  0  0  0  0  0  0  0  0
   -3.7816   -0.8044    0.1838 C   0  0  0  0  0  0  0  0  0  0  0  0
    0.5076    0.6643    1.5266 H   0  0  0  0  0  0  0  0  0  0  0  0
    2.5428    0.2095    1.7261 H   0  0  0  0  0  0  0  0  0  0  0  0
   -0.1450    2.1345   -0.9694 H   0  0  0  0  0  0  0  0  0  0  0  0
   -0.5629    2.7292    0.6184 H   0  0  0  0  0  0  0  0  0  0  0  0
    2.5949   -1.1198   -2.3065 H   0  0  0  0  0  0  0  0  0  0  0  0
    3.0485    0.4507   -2.9710 H   0  0  0  0  0  0  0  0  0  0  0  0
    3.8007   -0.0900   -1.4781 H   0  0  0  0  0  0  0  0  0  0  0  0
    1.5821   -2.0072    1.1284 H   0  0  0  0  0  0  0  0  0  0  0  0
    3.3037   -1.9802    1.5514 H   0  0  0  0  0  0  0  0  0  0  0  0
    2.8216   -2.0621   -0.1461 H   0  0  0  0  0  0  0  0  0  0  0  0
   -2.4224    1.8135    1.8685 H   0  0  0  0  0  0  0  0  0  0  0  0
   -0.9742   -0.2276   -1.6452 H   0  0  0  0  0  0  0  0  0  0  0  0
   -4.3765    0.3042    1.9310 H   0  0  0  0  0  0  0  0  0  0  0  0
   -2.9394   -1.7292   -1.5713 H   0  0  0  0  0  0  0  0  0  0  0  0
   -4.6429   -1.4665    0.2148 H   0  0  0  0  0  0  0  0  0  0  0  0
  2  1  2  0
  3  1  1  0
  4  1  1  0
  5  3  1  0
  6  5  1  0
  7  2  1  0
  8  4  1  0
  9  6  2  0
 10  6  1  0
 11  9  1  0
 12 10  2  0
 13 12  1  0
 11 13  2  0
  3 14  1  0
  4 15  1  0
  5 16  1  0
  5 17  1  0
  7 18  1  0
  7 19  1  0
  7 20  1  0
  8 21  1  0
  8 22  1  0
  8 23  1  0
  9 24  1  0
 10 25  1  0
 11 26  1  0
 12 27  1  0
 13 28  1  0
M  END
$$$$
