
     RDKit          3D

 28 28  0  0  0  0  0  0  0  0999 V2000
   -1.7165    0.0697   -0.2295 C   0  0  0  0  0  0  0  0  0  0  0  0
   -2.1718   -0.5621   -1.2435 N   0  0  0  0  0  0  0  0  0  0  0  0
   -0.3710    0.0960    0.0212 N   0  0  0  0  0  0  0  0  0  0  0  0
   -2.3107    0.8040    0.7585 N   0  0  0  0  0  0  0  0  0  0  0  0
    0.5656   -0.4997   -0.9166 C   0  0  0  0  0  0  0  0  0  0  0  0
    1.9723   -0.3052   -0.4011 C   0  0  0  0  0  0  0  0  0  0  0  0
   -3.5749   -0.5774   -1.5859 C   0  0  0  0  0  0  0  0  0  0  0  0
   -3.7108    0.7788    1.1038 C   0  0  0  0  0  0  0  0  0  0  0  0
    2.8019    0.6886   -0.9401 C   0  0  0  0  0  0  0  0  0  0  0  0
    2.4562   -1.0967    0.6513 C   0  0  0  0  0  0  0  0  0  0  0  0
    4.0943    0.8754   -0.4462 C   0  0  0  0  0  0  0  0  0  0  0  0
    3.7483   -0.9082    1.1436 C   0  0  0  0  0  0  0  0  0  0  0  0
    4.5671    0.0765    0.5937 C   0  0  0  0  0  0  0  0  0  0  0  0
   -0.0566    1.0078    0.3292 H   0  0  0  0  0  0  0  0  0  0  0  0
   -1.7309    0.7985    1.5908 H   0  0  0  0  0  0  0  0  0  0  0  0
    0.4632   -0.0375   -1.9060 H   0  0  0  0  0  0  0  0  0  0  0  0
    0.3701   -1.5727   -1.0337 H   0  0  0  0  0  0  0  0  0  0  0  0
   -3.9691    0.4318   -1.7352 H   0  0  0  0  0  0  0  0  0  0  0  0
   -4.1696   -1.1183   -0.8448 H   0  0  0  0  0  0  0  0  0  0  0  0
   -3.7001   -1.1055   -2.5371 H   0  0  0  0  0  0  0  0  0  0  0  0
   -4.3264    1.2225    0.3179 H   0  0  0  0  0  0  0  0  0  0  0  0
   -4.0475   -0.2400    1.3162 H   0  0  0  0  0  0  0  0  0  0  0  0
   -3.8705    1.3750    2.0082 H   0  0  0  0  0  0  0  0  0  0  0  0
    2.4463    1.3223   -1.7498 H   0  0  0  0  0  0  0  0  0  0  0  0
    1.8201   -1.8620    1.0920 H   0  0  0  0  0  0  0  0  0  0  0  0
    4.7326    1.6448   -0.8728 H   0  0  0  0  0  0  0  0  0  0  0  0
    4.1147   -1.5287    1.9572 H   0  0  0  0  0  0  0  0  0  0  0  0
    5.5735    0.2226    0.9770 H   0  0  0  0  0  0  0  0  0  0  0  0
  2  1  2  0
  3  1  1  0
  4  1  1  0
  5  3  1  0
  6  5  1  0
  7  2  1  0
  8  4  1  0
  9  6  2  0
 10  6  1  0
 11  9  1  0
 12 10  2  0
 13 12  1  0
 11 13  2  0
  3 14  1  0
  4 15  1  0
  5 16  1  0
  5 17  1  0
  7 18  1  0
  7 19  1  0
  7 20  1  0
  8 21  1  0
  8 22  1  0
  8 23  1  0
  9 24  1  0
 10 25  1  0
 11 26  1  0
 12 27  1  0
 13 28  1  0
M  END
$$$$
