
     RDKit          3D

 28 29  0  0  0  0  0  0  0  0999 V2000
    0.8828   -1.0627    0.4845 C   0  0  0  0  0  0  0  0  0  0  0  0
    0.2443   -0.0913    1.1792 O   0  0  0  0  0  0  0  0  0  0  0  0
    0.5265   -2.2255    0.3748 O   0  0  0  0  0  0  0  0  0  0  0  0
    2.1212   -0.5247   -0.1424 C   0  0  0  0  0  0  0  0  0  0  0  0
   -0.9894   -0.4753    1.7973 C   0  0  0  0  0  0  0  0  0  0  0  0
   -2.1390   -0.0207    0.9367 C   0  0  0  0  0  0  0  0  0  0  0  0
    2.4655    0.8331   -0.0850 C   0  0  0  0  0  0  0  0  0  0  0  0
    2.9635   -1.4192   -0.8175 C   0  0  0  0  0  0  0  0  0  0  0  0
   -2.6968   -0.8863   -0.0143 C   0  0  0  0  0  0  0  0  0  0  0  0
   -2.6388    1.2846    1.0438 C   0  0  0  0  0  0  0  0  0  0  0  0
    3.6396    1.2856   -0.6923 C   0  0  0  0  0  0  0  0  0  0  0  0
    4.1362   -0.9630   -1.4229 C   0  0  0  0  0  0  0  0  0  0  0  0
   -3.7483   -0.4611   -0.8275 C   0  0  0  0  0  0  0  0  0  0  0  0
   -3.6910    1.7078    0.2300 C   0  0  0  0  0  0  0  0  0  0  0  0
    4.4732    0.3882   -1.3591 C   0  0  0  0  0  0  0  0  0  0  0  0
   -4.2466    0.8344   -0.7034 C   0  0  0  0  0  0  0  0  0  0  0  0
   -1.0466   -1.5505    2.0071 H   0  0  0  0  0  0  0  0  0  0  0  0
   -1.0366    0.0231    2.7726 H   0  0  0  0  0  0  0  0  0  0  0  0
    1.8275    1.5509    0.4244 H   0  0  0  0  0  0  0  0  0  0  0  0
    2.7085   -2.4758   -0.8748 H   0  0  0  0  0  0  0  0  0  0  0  0
   -2.3079   -1.8969   -0.1294 H   0  0  0  0  0  0  0  0  0  0  0  0
   -2.2077    1.9798    1.7606 H   0  0  0  0  0  0  0  0  0  0  0  0
    3.9026    2.3397   -0.6467 H   0  0  0  0  0  0  0  0  0  0  0  0
    4.7849   -1.6623   -1.9448 H   0  0  0  0  0  0  0  0  0  0  0  0
   -4.1745   -1.1405   -1.5610 H   0  0  0  0  0  0  0  0  0  0  0  0
   -4.0747    2.7206    0.3211 H   0  0  0  0  0  0  0  0  0  0  0  0
    5.3859    0.7430   -1.8318 H   0  0  0  0  0  0  0  0  0  0  0  0
   -5.0642    1.1650   -1.3384 H   0  0  0  0  0  0  0  0  0  0  0  0
  2  1  1  0
  3  1  2  0
  4  1  1  0
  5  2  1  0
  6  5  1  0
  7  4  2  0
  8  4  1  0
  9  6  2  0
 10  6  1  0
 11  7  1  0
 12  8  2  0
 13  9  1  0
 14 10  2  0
 15 12  1  0
 16 14  1  0
 15 11  2  0
 16 13  2  0
  5 17  1  0
  5 18  1  0
  7 19  1  0
  8 20  1  0
  9 21  1  0
 10 22  1  0
 11 23  1  0
 12 24  1  0
 13 25  1  0
 14 26  1  0
 15 27  1  0
 16 28  1  0
M  END
$$$$
