
     RDKit          3D

 28 29  0  0  0  0  0  0  0  0999 V2000
    0.7928   -1.0335    0.7620 C   0  0  0  0  0  0  0  0  0  0  0  0
    0.0755   -0.0228    1.3079 O   0  0  0  0  0  0  0  0  0  0  0  0
    0.4431   -2.1998    0.6698 O   0  0  0  0  0  0  0  0  0  0  0  0
    2.1103   -0.5347    0.2810 C   0  0  0  0  0  0  0  0  0  0  0  0
   -1.2346   -0.3684    1.7724 C   0  0  0  0  0  0  0  0  0  0  0  0
   -2.2518    0.0395    0.7389 C   0  0  0  0  0  0  0  0  0  0  0  0
    2.4572    0.8234    0.3090 C   0  0  0  0  0  0  0  0  0  0  0  0
    3.0277   -1.4679   -0.2220 C   0  0  0  0  0  0  0  0  0  0  0  0
   -2.6836   -0.8773   -0.2295 C   0  0  0  0  0  0  0  0  0  0  0  0
   -2.7485    1.3499    0.7039 C   0  0  0  0  0  0  0  0  0  0  0  0
    3.7075    1.2381   -0.1567 C   0  0  0  0  0  0  0  0  0  0  0  0
    4.2763   -1.0494   -0.6862 C   0  0  0  0  0  0  0  0  0  0  0  0
   -3.6103   -0.4965   -1.2010 C   0  0  0  0  0  0  0  0  0  0  0  0
   -3.6758    1.7288   -0.2682 C   0  0  0  0  0  0  0  0  0  0  0  0
    4.6150    0.3025   -0.6525 C   0  0  0  0  0  0  0  0  0  0  0  0
   -4.1080    0.8052   -1.2184 C   0  0  0  0  0  0  0  0  0  0  0  0
   -1.4091    0.1845    2.7028 H   0  0  0  0  0  0  0  0  0  0  0  0
   -1.3306   -1.4298    2.0320 H   0  0  0  0  0  0  0  0  0  0  0  0
    1.7631    1.5704    0.6858 H   0  0  0  0  0  0  0  0  0  0  0  0
    2.7723   -2.5255   -0.2545 H   0  0  0  0  0  0  0  0  0  0  0  0
   -2.2928   -1.8937   -0.2340 H   0  0  0  0  0  0  0  0  0  0  0  0
   -2.4120    2.0835    1.4330 H   0  0  0  0  0  0  0  0  0  0  0  0
    3.9723    2.2925   -0.1345 H   0  0  0  0  0  0  0  0  0  0  0  0
    4.9830   -1.7786   -1.0750 H   0  0  0  0  0  0  0  0  0  0  0  0
   -3.9396   -1.2153   -1.9467 H   0  0  0  0  0  0  0  0  0  0  0  0
   -4.0582    2.7459   -0.2868 H   0  0  0  0  0  0  0  0  0  0  0  0
    5.5871    0.6279   -1.0153 H   0  0  0  0  0  0  0  0  0  0  0  0
   -4.8282    1.1012   -1.9765 H   0  0  0  0  0  0  0  0  0  0  0  0
  2  1  1  0
  3  1  2  0
  4  1  1  0
  5  2  1  0
  6  5  1  0
  7  4  2  0
  8  4  1  0
  9  6  2  0
 10  6  1  0
 11  7  1  0
 12  8  2  0
 13  9  1  0
 14 10  2  0
 15 12  1  0
 16 14  1  0
 15 11  2  0
 16 13  2  0
  5 17  1  0
  5 18  1  0
  7 19  1  0
  8 20  1  0
  9 21  1  0
 10 22  1  0
 11 23  1  0
 12 24  1  0
 13 25  1  0
 14 26  1  0
 15 27  1  0
 16 28  1  0
M  END
$$$$
