
     RDKit          3D

 16 17  0  0  0  0  0  0  0  0999 V2000
   -1.0851   -0.3563   -0.9704 C   0  0  0  0  0  0  0  0  0  0  0  0
    0.1799   -0.1952   -0.4493 O   0  0  0  0  0  0  0  0  0  0  0  0
   -1.1711   -0.7918   -2.1652 O   0  0  0  0  0  0  0  0  0  0  0  0
   -2.2873   -0.0470   -0.2035 C   0  0  0  0  0  0  0  0  0  0  0  0
    1.3721   -0.4907   -1.1791 C   0  0  0  0  0  0  0  0  0  0  0  0
    2.5200   -0.1814   -0.2607 C   0  0  0  0  0  0  0  0  0  0  0  0
   -2.2414    0.4289    1.0988 C   0  0  0  0  0  0  0  0  0  0  0  0
   -3.5212   -0.2335   -0.7921 C   0  0  0  0  0  0  0  0  0  0  0  0
    3.0310   -1.1548    0.5789 C   0  0  0  0  0  0  0  0  0  0  0  0
    3.1026    1.0684   -0.2181 C   0  0  0  0  0  0  0  0  0  0  0  0
   -3.4200    0.7067    1.7816 C   0  0  0  0  0  0  0  0  0  0  0  0
   -4.7113    0.0321   -0.1435 C   0  0  0  0  0  0  0  0  0  0  0  0
    4.0752   -0.9484    1.4433 C   0  0  0  0  0  0  0  0  0  0  0  0
    4.1617    1.3394    0.6348 C   0  0  0  0  0  0  0  0  0  0  0  0
   -4.6264    0.5027    1.1468 C   0  0  0  0  0  0  0  0  0  0  0  0
    4.6212    0.3210    1.4451 C   0  0  0  0  0  0  0  0  0  0  0  0
  2  1  1  0
  3  1  2  0
  4  1  1  0
  5  2  1  0
  6  5  1  0
  7  4  2  0
  8  4  1  0
  9  6  2  0
 10  6  1  0
 11  7  1  0
 12  8  2  0
 13  9  1  0
 14 10  2  0
 15 12  1  0
 16 14  1  0
 15 11  2  0
 16 13  2  0
M  END
