
     RDKit          3D

 22 13  0  0  0  0  0  0  0  0999 V2000
    0.0000    0.0000    0.0000 Ca  0  0  0  0  0 15  0  0  0  0  0  0
    0.0000   -0.0000   -0.0000 P   0  0  0  0  0  0  0  0  0  0  0  0
   -0.6384   -1.1530   -0.7918 O   0  0  0  0  0  0  0  0  0  0  0  0
    1.5307   -0.0826   -0.1188 O   0  0  0  0  0  0  0  0  0  0  0  0
   -0.4058   -0.1076    1.4791 O   0  0  0  0  0  0  0  0  0  0  0  0
   -0.4864    1.3432   -0.5685 O   0  0  0  0  0  0  0  0  0  0  0  0
    0.4889    0.0000    0.0000 O   0  0  0  0  0  0  0  0  0  0  0  0
    0.0000    0.0000    0.0000 Ca  0  0  0  0  0 15  0  0  0  0  0  0
    0.0000    0.0000    0.0000 Ca  0  0  0  0  0 15  0  0  0  0  0  0
    0.0000   -0.0000    0.0000 P   0  0  0  0  0  0  0  0  0  0  0  0
   -0.9337   -0.9217   -0.8017 O   0  0  0  0  0  0  0  0  0  0  0  0
   -0.2812   -0.1669    1.5024 O   0  0  0  0  0  0  0  0  0  0  0  0
    1.4628   -0.3728   -0.2922 O   0  0  0  0  0  0  0  0  0  0  0  0
   -0.2479    1.4614   -0.4085 O   0  0  0  0  0  0  0  0  0  0  0  0
    0.0000    0.0000    0.0000 P   0  0  0  0  0  0  0  0  0  0  0  0
   -0.8312   -1.0572   -0.7452 O   0  0  0  0  0  0  0  0  0  0  0  0
   -0.1106    1.3479   -0.7314 O   0  0  0  0  0  0  0  0  0  0  0  0
   -0.5304    0.1507    1.4352 O   0  0  0  0  0  0  0  0  0  0  0  0
    1.4722   -0.4413    0.0414 O   0  0  0  0  0  0  0  0  0  0  0  0
    0.0000    0.0000    0.0000 Ca  0  0  0  0  0 15  0  0  0  0  0  0
    0.0000    0.0000    0.0000 Ca  0  0  0  0  0 15  0  0  0  0  0  0
   -0.4889    0.0000    0.0000 H   0  0  0  0  0  0  0  0  0  0  0  0
  3  2  1  0
  4  2  1  0
  5  2  2  0
  6  2  1  0
 10 11  1  0
 10 12  2  0
 10 13  1  0
 10 14  1  0
 15 16  1  0
 15 17  2  0
 15 18  1  0
 15 19  1  0
  7 22  1  0
M  CHG  8   1   2   3  -1   4  -1   6  -1   7  -1   8   2   9   2  11  -1
M  CHG  7  13  -1  14  -1  16  -1  18  -1  19  -1  20   2  21   2
M  END
$$$$
