
     RDKit          3D

 22 13  0  0  0  0  0  0  0  0999 V2000
    0.0000    0.0000    0.0000 Ca  0  0  0  0  0 15  0  0  0  0  0  0
   -0.0000    0.0000    0.0000 P   0  0  0  0  0  0  0  0  0  0  0  0
   -1.0528   -0.9180   -0.6426 O   0  0  0  0  0  0  0  0  0  0  0  0
    1.3914   -0.3511   -0.5518 O   0  0  0  0  0  0  0  0  0  0  0  0
   -0.0110   -0.1963    1.5249 O   0  0  0  0  0  0  0  0  0  0  0  0
   -0.3276    1.4654   -0.3305 O   0  0  0  0  0  0  0  0  0  0  0  0
    0.4889    0.0000    0.0000 O   0  0  0  0  0  0  0  0  0  0  0  0
    0.0000    0.0000    0.0000 Ca  0  0  0  0  0 15  0  0  0  0  0  0
    0.0000    0.0000    0.0000 Ca  0  0  0  0  0 15  0  0  0  0  0  0
   -0.0000    0.0000   -0.0000 P   0  0  0  0  0  0  0  0  0  0  0  0
   -0.5071    1.3487   -0.5365 O   0  0  0  0  0  0  0  0  0  0  0  0
    0.1223    0.0707    1.5310 O   0  0  0  0  0  0  0  0  0  0  0  0
    1.3768   -0.3094   -0.6104 O   0  0  0  0  0  0  0  0  0  0  0  0
   -0.9921   -1.1100   -0.3842 O   0  0  0  0  0  0  0  0  0  0  0  0
    0.0000   -0.0000    0.0000 P   0  0  0  0  0  0  0  0  0  0  0  0
   -0.0060    1.5125   -0.2764 O   0  0  0  0  0  0  0  0  0  0  0  0
   -0.1770   -0.2462    1.5073 O   0  0  0  0  0  0  0  0  0  0  0  0
    1.3373   -0.6005   -0.4638 O   0  0  0  0  0  0  0  0  0  0  0  0
   -1.1543   -0.6658   -0.7671 O   0  0  0  0  0  0  0  0  0  0  0  0
    0.0000    0.0000    0.0000 Ca  0  0  0  0  0 15  0  0  0  0  0  0
    0.0000    0.0000    0.0000 Ca  0  0  0  0  0 15  0  0  0  0  0  0
   -0.4889    0.0000    0.0000 H   0  0  0  0  0  0  0  0  0  0  0  0
  3  2  1  0
  4  2  1  0
  5  2  2  0
  6  2  1  0
 10 11  1  0
 10 12  2  0
 10 13  1  0
 10 14  1  0
 15 16  1  0
 15 17  2  0
 15 18  1  0
 15 19  1  0
  7 22  1  0
M  CHG  8   1   2   3  -1   4  -1   6  -1   7  -1   8   2   9   2  11  -1
M  CHG  7  13  -1  14  -1  16  -1  18  -1  19  -1  20   2  21   2
M  END
$$$$
