
     RDKit          3D

 22 13  0  0  0  0  0  0  0  0999 V2000
    0.0000    0.0000    0.0000 Ca  0  0  0  0  0 15  0  0  0  0  0  0
    0.0000   -0.0000   -0.0000 P   0  0  0  0  0  0  0  0  0  0  0  0
   -0.5114    1.2840   -0.6736 O   0  0  0  0  0  0  0  0  0  0  0  0
    1.4988   -0.1724   -0.2965 O   0  0  0  0  0  0  0  0  0  0  0  0
   -0.2138    0.0982    1.5194 O   0  0  0  0  0  0  0  0  0  0  0  0
   -0.7736   -1.2099   -0.5493 O   0  0  0  0  0  0  0  0  0  0  0  0
    0.4889    0.0000    0.0000 O   0  0  0  0  0  0  0  0  0  0  0  0
    0.0000    0.0000    0.0000 Ca  0  0  0  0  0 15  0  0  0  0  0  0
    0.0000    0.0000    0.0000 Ca  0  0  0  0  0 15  0  0  0  0  0  0
   -0.0000   -0.0000   -0.0000 P   0  0  0  0  0  0  0  0  0  0  0  0
   -1.0547   -0.8138   -0.7676 O   0  0  0  0  0  0  0  0  0  0  0  0
   -0.2484   -0.1353    1.5113 O   0  0  0  0  0  0  0  0  0  0  0  0
    1.4028   -0.5307   -0.3383 O   0  0  0  0  0  0  0  0  0  0  0  0
   -0.0996    1.4798   -0.4053 O   0  0  0  0  0  0  0  0  0  0  0  0
    0.0000   -0.0000    0.0000 P   0  0  0  0  0  0  0  0  0  0  0  0
   -0.6054    1.3045   -0.5439 O   0  0  0  0  0  0  0  0  0  0  0  0
    1.4480   -0.1396   -0.4978 O   0  0  0  0  0  0  0  0  0  0  0  0
   -0.8298   -1.1958   -0.4955 O   0  0  0  0  0  0  0  0  0  0  0  0
   -0.0128    0.0309    1.5372 O   0  0  0  0  0  0  0  0  0  0  0  0
    0.0000    0.0000    0.0000 Ca  0  0  0  0  0 15  0  0  0  0  0  0
    0.0000    0.0000    0.0000 Ca  0  0  0  0  0 15  0  0  0  0  0  0
   -0.4889    0.0000    0.0000 H   0  0  0  0  0  0  0  0  0  0  0  0
  3  2  1  0
  4  2  1  0
  5  2  2  0
  6  2  1  0
 10 11  1  0
 10 12  2  0
 10 13  1  0
 10 14  1  0
 15 16  1  0
 15 17  2  0
 15 18  1  0
 15 19  1  0
  7 22  1  0
M  CHG  8   1   2   3  -1   4  -1   6  -1   7  -1   8   2   9   2  11  -1
M  CHG  7  13  -1  14  -1  16  -1  18  -1  19  -1  20   2  21   2
M  END
$$$$
