
     RDKit          3D

 25 26  0  0  0  0  0  0  0  0999 V2000
    0.0000    0.0000    0.0000 K   0  0  0  0  0 15  0  0  0  0  0  0
   -0.2712   -0.5523   -0.7289 N   0  0  0  0  0  0  0  0  0  0  0  0
    1.8895    0.1342    0.1693 C   0  0  0  0  0  0  0  0  0  0  0  0
    1.1251   -0.6504   -0.8292 C   0  0  0  0  0  0  0  0  0  0  0  0
   -0.8618    0.1527    0.3163 C   0  0  0  0  0  0  0  0  0  0  0  0
   -0.1870    0.7836    1.2273 N   0  0  0  0  0  0  0  0  0  0  0  0
    3.4546    0.2249    0.1256 C   0  0  0  0  0  0  0  0  0  0  0  0
    1.1768    0.7628    1.1149 C   0  0  0  0  0  0  0  0  0  0  0  0
    4.2156    0.1280   -0.9874 N   0  0  0  0  0  0  0  0  0  0  0  0
    5.4803    0.3575   -0.5615 N   0  0  0  0  0  0  0  0  0  0  0  0
    5.4695    0.5956    0.7664 N   0  0  0  0  0  0  0  0  0  0  0  0
    4.1982    0.5264    1.2218 N   0  0  0  0  0  0  0  0  0  0  0  0
   -2.3669    0.1670    0.3717 C   0  0  0  0  0  0  0  0  0  0  0  0
   -1.0521   -1.2177   -1.6693 C   0  0  0  0  0  0  0  0  0  0  0  0
    1.6682   -1.3720   -1.6667 O   0  0  0  0  0  0  0  0  0  0  0  0
   -2.3880   -1.2028   -1.6219 C   0  0  0  0  0  0  0  0  0  0  0  0
   -3.0596   -0.4894   -0.5718 C   0  0  0  0  0  0  0  0  0  0  0  0
   -3.0097    0.9248    1.4899 C   0  0  0  0  0  0  0  0  0  0  0  0
    1.7044    1.3424    1.8715 H   0  0  0  0  0  0  0  0  0  0  0  0
   -0.5254   -1.7557   -2.4540 H   0  0  0  0  0  0  0  0  0  0  0  0
   -2.9795   -1.7268   -2.3647 H   0  0  0  0  0  0  0  0  0  0  0  0
   -4.1448   -0.5027   -0.5682 H   0  0  0  0  0  0  0  0  0  0  0  0
   -2.7268    1.9818    1.4522 H   0  0  0  0  0  0  0  0  0  0  0  0
   -4.1027    0.8743    1.4382 H   0  0  0  0  0  0  0  0  0  0  0  0
   -2.7067    0.5139    2.4585 H   0  0  0  0  0  0  0  0  0  0  0  0
  3  4  1  0
  4  2  1  0
  5  2  1  0
  6  5  2  0
  7  3  1  0
  8  6  1  0
  9  7  1  0
 10  9  1  0
 11 12  1  0
 12  7  2  0
 13  5  1  0
 14  2  1  0
 15  4  2  0
 16 14  2  0
 17 16  1  0
 18 13  1  0
 17 13  2  0
  8  3  2  0
 10 11  2  0
  8 19  1  0
 14 20  1  0
 16 21  1  0
 17 22  1  0
 18 23  1  0
 18 24  1  0
 18 25  1  0
M  CHG  2   1   1   9  -1
M  END
$$$$
