
     RDKit          3D

 25 26  0  0  0  0  0  0  0  0999 V2000
    0.0000    0.0000    0.0000 K   0  0  0  0  0 15  0  0  0  0  0  0
    0.1307    0.9368    0.1787 N   0  0  0  0  0  0  0  0  0  0  0  0
   -1.8298   -0.5127    0.1322 C   0  0  0  0  0  0  0  0  0  0  0  0
   -1.2677    0.8528    0.2602 C   0  0  0  0  0  0  0  0  0  0  0  0
    0.8954   -0.1894   -0.1136 C   0  0  0  0  0  0  0  0  0  0  0  0
    0.3919   -1.3720   -0.2906 N   0  0  0  0  0  0  0  0  0  0  0  0
   -3.3617   -0.7954    0.3138 C   0  0  0  0  0  0  0  0  0  0  0  0
   -0.9636   -1.4965   -0.1485 C   0  0  0  0  0  0  0  0  0  0  0  0
   -3.9701   -1.8858   -0.2212 N   0  0  0  0  0  0  0  0  0  0  0  0
   -5.2452   -1.8212    0.2241 N   0  0  0  0  0  0  0  0  0  0  0  0
   -5.3873   -0.7347    1.0112 N   0  0  0  0  0  0  0  0  0  0  0  0
   -4.2063   -0.0767    1.0867 N   0  0  0  0  0  0  0  0  0  0  0  0
    2.3851    0.0019   -0.2271 C   0  0  0  0  0  0  0  0  0  0  0  0
    0.7315    2.1809    0.3469 C   0  0  0  0  0  0  0  0  0  0  0  0
   -1.9732    1.8541    0.3893 O   0  0  0  0  0  0  0  0  0  0  0  0
    2.0539    2.3503    0.2489 C   0  0  0  0  0  0  0  0  0  0  0  0
    2.9000    1.2278   -0.0455 C   0  0  0  0  0  0  0  0  0  0  0  0
    3.2145   -1.2036   -0.5380 C   0  0  0  0  0  0  0  0  0  0  0  0
   -1.3409   -2.5126   -0.2588 H   0  0  0  0  0  0  0  0  0  0  0  0
    0.0739    3.0191    0.5650 H   0  0  0  0  0  0  0  0  0  0  0  0
    2.5037    3.3278    0.3844 H   0  0  0  0  0  0  0  0  0  0  0  0
    3.9679    1.4075   -0.1178 H   0  0  0  0  0  0  0  0  0  0  0  0
    3.0945   -1.9653    0.2394 H   0  0  0  0  0  0  0  0  0  0  0  0
    2.9223   -1.6349   -1.5010 H   0  0  0  0  0  0  0  0  0  0  0  0
    4.2804   -0.9583   -0.5968 H   0  0  0  0  0  0  0  0  0  0  0  0
  3  4  1  0
  4  2  1  0
  5  2  1  0
  6  5  2  0
  7  3  1  0
  8  6  1  0
  9  7  1  0
 10  9  1  0
 11 12  1  0
 12  7  2  0
 13  5  1  0
 14  2  1  0
 15  4  2  0
 16 14  2  0
 17 16  1  0
 18 13  1  0
 17 13  2  0
  8  3  2  0
 10 11  2  0
  8 19  1  0
 14 20  1  0
 16 21  1  0
 17 22  1  0
 18 23  1  0
 18 24  1  0
 18 25  1  0
M  CHG  2   1   1   9  -1
M  END
$$$$
