
     RDKit          3D

 25 26  0  0  0  0  0  0  0  0999 V2000
    0.0000    0.0000    0.0000 K   0  0  0  0  0 15  0  0  0  0  0  0
   -0.2062    0.7487    0.5540 N   0  0  0  0  0  0  0  0  0  0  0  0
    1.8680   -0.3258   -0.1460 C   0  0  0  0  0  0  0  0  0  0  0  0
    1.1942    0.7325    0.6433 C   0  0  0  0  0  0  0  0  0  0  0  0
   -0.8861   -0.2435   -0.1473 C   0  0  0  0  0  0  0  0  0  0  0  0
   -0.2932   -1.2072   -0.7824 N   0  0  0  0  0  0  0  0  0  0  0  0
    3.4307   -0.4123   -0.2464 C   0  0  0  0  0  0  0  0  0  0  0  0
    1.0752   -1.2085   -0.7700 C   0  0  0  0  0  0  0  0  0  0  0  0
    4.2823    0.6335   -0.1543 N   0  0  0  0  0  0  0  0  0  0  0  0
    5.5057    0.1040   -0.3916 N   0  0  0  0  0  0  0  0  0  0  0  0
    5.3830   -1.2183   -0.6295 N   0  0  0  0  0  0  0  0  0  0  0  0
    4.0787   -1.5664   -0.5524 N   0  0  0  0  0  0  0  0  0  0  0  0
   -2.3906   -0.1735   -0.1522 C   0  0  0  0  0  0  0  0  0  0  0  0
   -0.9021    1.7505    1.2241 C   0  0  0  0  0  0  0  0  0  0  0  0
    1.8094    1.5216    1.3615 O   0  0  0  0  0  0  0  0  0  0  0  0
   -2.2374    1.8143    1.2175 C   0  0  0  0  0  0  0  0  0  0  0  0
   -2.9984    0.8240    0.5084 C   0  0  0  0  0  0  0  0  0  0  0  0
   -3.1289   -1.2341   -0.9059 C   0  0  0  0  0  0  0  0  0  0  0  0
    1.5346   -2.0061   -1.3529 H   0  0  0  0  0  0  0  0  0  0  0  0
   -0.3086    2.4884    1.7588 H   0  0  0  0  0  0  0  0  0  0  0  0
   -2.7618    2.6035    1.7452 H   0  0  0  0  0  0  0  0  0  0  0  0
   -4.0800    0.9106    0.5285 H   0  0  0  0  0  0  0  0  0  0  0  0
   -2.9048   -2.2247   -0.4969 H   0  0  0  0  0  0  0  0  0  0  0  0
   -2.8504   -1.2196   -1.9647 H   0  0  0  0  0  0  0  0  0  0  0  0
   -4.2134   -1.0917   -0.8487 H   0  0  0  0  0  0  0  0  0  0  0  0
  3  4  1  0
  4  2  1  0
  5  2  1  0
  6  5  2  0
  7  3  1  0
  8  6  1  0
  9  7  1  0
 10  9  1  0
 11 12  1  0
 12  7  2  0
 13  5  1  0
 14  2  1  0
 15  4  2  0
 16 14  2  0
 17 16  1  0
 18 13  1  0
 17 13  2  0
  8  3  2  0
 10 11  2  0
  8 19  1  0
 14 20  1  0
 16 21  1  0
 17 22  1  0
 18 23  1  0
 18 24  1  0
 18 25  1  0
M  CHG  2   1   1   9  -1
M  END
$$$$
