
     RDKit          3D

 25 26  0  0  0  0  0  0  0  0999 V2000
    0.0000    0.0000    0.0000 K   0  0  0  0  0 15  0  0  0  0  0  0
   -0.1886    0.8499   -0.3899 N   0  0  0  0  0  0  0  0  0  0  0  0
    1.8477   -0.4475   -0.0488 C   0  0  0  0  0  0  0  0  0  0  0  0
    1.1999    0.7755   -0.5792 C   0  0  0  0  0  0  0  0  0  0  0  0
   -0.8900   -0.2189    0.1618 C   0  0  0  0  0  0  0  0  0  0  0  0
   -0.3256   -1.3157    0.5642 N   0  0  0  0  0  0  0  0  0  0  0  0
    3.4045   -0.6355   -0.0764 C   0  0  0  0  0  0  0  0  0  0  0  0
    1.0367   -1.3883    0.4554 C   0  0  0  0  0  0  0  0  0  0  0  0
    4.3164    0.3615   -0.0331 N   0  0  0  0  0  0  0  0  0  0  0  0
    5.5140   -0.2684    0.0153 N   0  0  0  0  0  0  0  0  0  0  0  0
    5.3185   -1.6032    0.0125 N   0  0  0  0  0  0  0  0  0  0  0  0
    3.9918   -1.8598   -0.0357 N   0  0  0  0  0  0  0  0  0  0  0  0
   -2.3836   -0.0702    0.2855 C   0  0  0  0  0  0  0  0  0  0  0  0
   -0.8552    1.9962   -0.8125 C   0  0  0  0  0  0  0  0  0  0  0  0
    1.8224    1.6518   -1.1804 O   0  0  0  0  0  0  0  0  0  0  0  0
   -2.1807    2.1294   -0.7001 C   0  0  0  0  0  0  0  0  0  0  0  0
   -2.9622    1.0654   -0.1347 C   0  0  0  0  0  0  0  0  0  0  0  0
   -3.1445   -1.2128    0.8800 C   0  0  0  0  0  0  0  0  0  0  0  0
    1.4759   -2.3052    0.8468 H   0  0  0  0  0  0  0  0  0  0  0  0
   -0.2469    2.7889   -1.2418 H   0  0  0  0  0  0  0  0  0  0  0  0
   -2.6821    3.0312   -1.0344 H   0  0  0  0  0  0  0  0  0  0  0  0
   -4.0350    1.2123   -0.0622 H   0  0  0  0  0  0  0  0  0  0  0  0
   -3.0110   -2.1189    0.2801 H   0  0  0  0  0  0  0  0  0  0  0  0
   -4.2188   -1.0040    0.9267 H   0  0  0  0  0  0  0  0  0  0  0  0
   -2.8036   -1.4136    1.9009 H   0  0  0  0  0  0  0  0  0  0  0  0
  3  4  1  0
  4  2  1  0
  5  2  1  0
  6  5  2  0
  7  3  1  0
  8  6  1  0
  9  7  1  0
 10  9  1  0
 11 12  1  0
 12  7  2  0
 13  5  1  0
 14  2  1  0
 15  4  2  0
 16 14  2  0
 17 16  1  0
 18 13  1  0
 17 13  2  0
  8  3  2  0
 10 11  2  0
  8 19  1  0
 14 20  1  0
 16 21  1  0
 17 22  1  0
 18 23  1  0
 18 24  1  0
 18 25  1  0
M  CHG  2   1   1   9  -1
M  END
$$$$
