
     RDKit          3D

 25 26  0  0  0  0  0  0  0  0999 V2000
    0.0000    0.0000    0.0000 K   0  0  0  0  0 15  0  0  0  0  0  0
   -0.3730   -0.7661    0.4288 N   0  0  0  0  0  0  0  0  0  0  0  0
    1.9010    0.0281    0.0482 C   0  0  0  0  0  0  0  0  0  0  0  0
    0.9972   -0.9924    0.6302 C   0  0  0  0  0  0  0  0  0  0  0  0
   -0.8190    0.4026   -0.1826 C   0  0  0  0  0  0  0  0  0  0  0  0
   -0.0248    1.3251   -0.6315 N   0  0  0  0  0  0  0  0  0  0  0  0
    3.4606   -0.1331    0.0846 C   0  0  0  0  0  0  0  0  0  0  0  0
    1.3195    1.0989   -0.5107 C   0  0  0  0  0  0  0  0  0  0  0  0
    4.3053    0.9266   -0.0090 N   0  0  0  0  0  0  0  0  0  0  0  0
    5.5419    0.3799   -0.0293 N   0  0  0  0  0  0  0  0  0  0  0  0
    5.4358   -0.9635    0.0354 N   0  0  0  0  0  0  0  0  0  0  0  0
    4.1280   -1.3085    0.1007 N   0  0  0  0  0  0  0  0  0  0  0  0
   -2.3083    0.5832   -0.3161 C   0  0  0  0  0  0  0  0  0  0  0  0
   -1.2779   -1.7132    0.8991 C   0  0  0  0  0  0  0  0  0  0  0  0
    1.4091   -1.9537    1.2807 O   0  0  0  0  0  0  0  0  0  0  0  0
   -2.5997   -1.5543    0.7780 C   0  0  0  0  0  0  0  0  0  0  0  0
   -3.1249   -0.3732    0.1523 C   0  0  0  0  0  0  0  0  0  0  0  0
   -2.7959    1.8348   -0.9745 C   0  0  0  0  0  0  0  0  0  0  0  0
    1.9518    1.8746   -0.9413 H   0  0  0  0  0  0  0  0  0  0  0  0
   -0.8612   -2.5985    1.3736 H   0  0  0  0  0  0  0  0  0  0  0  0
   -3.2892   -2.3043    1.1501 H   0  0  0  0  0  0  0  0  0  0  0  0
   -4.2036   -0.2817    0.0746 H   0  0  0  0  0  0  0  0  0  0  0  0
   -2.4185    1.9035   -2.0000 H   0  0  0  0  0  0  0  0  0  0  0  0
   -2.4646    2.7176   -0.4180 H   0  0  0  0  0  0  0  0  0  0  0  0
   -3.8897    1.8677   -1.0234 H   0  0  0  0  0  0  0  0  0  0  0  0
  3  4  1  0
  4  2  1  0
  5  2  1  0
  6  5  2  0
  7  3  1  0
  8  6  1  0
  9  7  1  0
 10  9  1  0
 11 12  1  0
 12  7  2  0
 13  5  1  0
 14  2  1  0
 15  4  2  0
 16 14  2  0
 17 16  1  0
 18 13  1  0
 17 13  2  0
  8  3  2  0
 10 11  2  0
  8 19  1  0
 14 20  1  0
 16 21  1  0
 17 22  1  0
 18 23  1  0
 18 24  1  0
 18 25  1  0
M  CHG  2   1   1   9  -1
M  END
$$$$
