
     RDKit          3D

 25 26  0  0  0  0  0  0  0  0999 V2000
    0.0000    0.0000    0.0000 K   0  0  0  0  0 15  0  0  0  0  0  0
   -0.3941   -0.8686   -0.0143 N   0  0  0  0  0  0  0  0  0  0  0  0
    1.8966   -0.0409   -0.1349 C   0  0  0  0  0  0  0  0  0  0  0  0
    0.9647   -1.1935   -0.1466 C   0  0  0  0  0  0  0  0  0  0  0  0
   -0.8088    0.4603    0.0118 C   0  0  0  0  0  0  0  0  0  0  0  0
    0.0072    1.4674   -0.0451 N   0  0  0  0  0  0  0  0  0  0  0  0
    3.4524   -0.2368   -0.1584 C   0  0  0  0  0  0  0  0  0  0  0  0
    1.3439    1.1800   -0.1048 C   0  0  0  0  0  0  0  0  0  0  0  0
    4.3022    0.7286   -0.5958 N   0  0  0  0  0  0  0  0  0  0  0  0
    5.5375    0.2234   -0.3790 N   0  0  0  0  0  0  0  0  0  0  0  0
    5.4265   -0.9980    0.1833 N   0  0  0  0  0  0  0  0  0  0  0  0
    4.1167   -1.3045    0.3378 N   0  0  0  0  0  0  0  0  0  0  0  0
   -2.2898    0.7162    0.1098 C   0  0  0  0  0  0  0  0  0  0  0  0
   -1.3217   -1.9047    0.0395 C   0  0  0  0  0  0  0  0  0  0  0  0
    1.3438   -2.3551   -0.3012 O   0  0  0  0  0  0  0  0  0  0  0  0
   -2.6360   -1.6777    0.1293 C   0  0  0  0  0  0  0  0  0  0  0  0
   -3.1292   -0.3294    0.1659 C   0  0  0  0  0  0  0  0  0  0  0  0
   -2.7438    2.1413    0.1416 C   0  0  0  0  0  0  0  0  0  0  0  0
    1.9970    2.0520   -0.1041 H   0  0  0  0  0  0  0  0  0  0  0  0
   -0.9293   -2.9184    0.0063 H   0  0  0  0  0  0  0  0  0  0  0  0
   -3.3435   -2.4987    0.1712 H   0  0  0  0  0  0  0  0  0  0  0  0
   -4.2027   -0.1876    0.2379 H   0  0  0  0  0  0  0  0  0  0  0  0
   -2.3178    2.6627    1.0050 H   0  0  0  0  0  0  0  0  0  0  0  0
   -2.4381    2.6639   -0.7707 H   0  0  0  0  0  0  0  0  0  0  0  0
   -3.8339    2.2180    0.2155 H   0  0  0  0  0  0  0  0  0  0  0  0
  3  4  1  0
  4  2  1  0
  5  2  1  0
  6  5  2  0
  7  3  1  0
  8  6  1  0
  9  7  1  0
 10  9  1  0
 11 12  1  0
 12  7  2  0
 13  5  1  0
 14  2  1  0
 15  4  2  0
 16 14  2  0
 17 16  1  0
 18 13  1  0
 17 13  2  0
  8  3  2  0
 10 11  2  0
  8 19  1  0
 14 20  1  0
 16 21  1  0
 17 22  1  0
 18 23  1  0
 18 24  1  0
 18 25  1  0
M  CHG  2   1   1   9  -1
M  END
$$$$
