
     RDKit          3D

 18 19  0  0  0  0  0  0  0  0999 V2000
    0.0000    0.0000    0.0000 K   0  0  0  0  0 15  0  0  0  0  0  0
   -1.1151    0.7137    0.1688 N   0  0  0  0  0  0  0  0  0  0  0  0
    0.9295   -0.3612   -0.1432 C   0  0  0  0  0  0  0  0  0  0  0  0
    0.2455    0.7850    0.2176 C   0  0  0  0  0  0  0  0  0  0  0  0
   -1.7522   -0.4139   -0.2108 C   0  0  0  0  0  0  0  0  0  0  0  0
   -1.0862   -1.5388   -0.5650 N   0  0  0  0  0  0  0  0  0  0  0  0
    2.3891   -0.3705   -0.1189 C   0  0  0  0  0  0  0  0  0  0  0  0
    0.2759   -1.5119   -0.5306 C   0  0  0  0  0  0  0  0  0  0  0  0
    3.1912   -1.3919   -0.4369 N   0  0  0  0  0  0  0  0  0  0  0  0
    4.4374   -1.0161   -0.2909 N   0  0  0  0  0  0  0  0  0  0  0  0
    4.4308    0.2340    0.1166 N   0  0  0  0  0  0  0  0  0  0  0  0
    3.1831    0.6570    0.2311 N   0  0  0  0  0  0  0  0  0  0  0  0
   -3.1383   -0.3855   -0.2275 C   0  0  0  0  0  0  0  0  0  0  0  0
   -1.8286    1.8055    0.5113 C   0  0  0  0  0  0  0  0  0  0  0  0
    0.8217    1.8437    0.5735 O   0  0  0  0  0  0  0  0  0  0  0  0
   -3.2072    1.8520    0.5005 C   0  0  0  0  0  0  0  0  0  0  0  0
   -3.8746    0.7119    0.1164 C   0  0  0  0  0  0  0  0  0  0  0  0
   -3.9021   -1.6129   -0.6420 C   0  0  0  0  0  0  0  0  0  0  0  0
  3  4  1  0
  4  2  1  0
  5  2  1  0
  6  5  2  0
  7  3  1  0
  8  6  1  0
  9  7  1  0
 10  9  1  0
 11 12  1  0
 12  7  2  0
 13  5  1  0
 14  2  1  0
 15  4  2  0
 16 14  2  0
 17 16  1  0
 18 13  1  0
 17 13  2  0
  8  3  2  0
 10 11  2  0
M  CHG  2   1   1   9  -1
M  END
