
     RDKit          3D

 66 71  0  0  0  0  0  0  0  0999 V2000
   -6.4534    0.8652    2.0010 C   0  0  0  0  0  0  0  0  0  0  0  0
   -7.3221    1.8046    2.5580 C   0  0  0  0  0  0  0  0  0  0  0  0
   -6.9618    3.1489    2.5799 C   0  0  0  0  0  0  0  0  0  0  0  0
   -5.7409    3.5296    2.0359 C   0  0  0  0  0  0  0  0  0  0  0  0
   -4.8779    2.5830    1.4816 C   0  0  0  0  0  0  0  0  0  0  0  0
   -5.2094    1.2239    1.4611 C   0  0  0  0  0  0  0  0  0  0  0  0
   -6.8369   -0.4191    1.9787 F   0  0  0  0  0  0  0  0  0  0  0  0
   -5.4008    4.8257    2.0364 F   0  0  0  0  0  0  0  0  0  0  0  0
   -3.7309    3.0086    0.9348 F   0  0  0  0  0  0  0  0  0  0  0  0
   -4.3214    0.1402    0.8772 C   0  0  1  0  0  0  0  0  0  0  0  0
   -3.8657   -1.3574   -1.0731 N   0  0  0  0  0  0  0  0  0  0  0  0
   -4.7058   -0.2523   -0.5720 C   0  0  2  0  0  0  0  0  0  0  0  0
   -2.8100    0.3986    0.9552 C   0  0  0  0  0  0  0  0  0  0  0  0
   -2.0653   -0.8864    0.6069 C   0  0  1  0  0  0  0  0  0  0  0  0
   -2.5321   -1.5142   -0.7227 C   0  0  0  0  0  0  0  0  0  0  0  0
   -4.6417    0.9249   -1.5589 C   0  0  0  0  0  0  0  0  0  0  0  0
   -4.4020   -2.2067   -2.1590 C   0  0  0  0  0  0  0  0  0  0  0  0
   -4.9417   -3.5586   -1.6863 C   0  0  0  0  0  0  0  0  0  0  0  0
   -5.3923   -4.2841   -2.7355 F   0  0  0  0  0  0  0  0  0  0  0  0
   -5.9852   -3.3857   -0.8403 F   0  0  0  0  0  0  0  0  0  0  0  0
   -4.0107   -4.2937   -1.0452 F   0  0  0  0  0  0  0  0  0  0  0  0
   -1.7624   -2.2120   -1.3889 O   0  0  0  0  0  0  0  0  0  0  0  0
   -0.6198   -0.6892    0.5237 N   0  0  0  0  0  0  0  0  0  0  0  0
    0.1373   -0.4759    1.6553 C   0  0  0  0  0  0  0  0  0  0  0  0
   -0.3520   -0.3239    2.7688 O   0  0  0  0  0  0  0  0  0  0  0  0
    1.6098   -0.4584    1.4798 C   0  0  0  0  0  0  0  0  0  0  0  0
    2.2320   -0.2185    0.2491 C   0  0  0  0  0  0  0  0  0  0  0  0
    2.4161   -0.6528    2.6057 C   0  0  0  0  0  0  0  0  0  0  0  0
    3.7759   -0.6476    2.5879 N   0  0  0  0  0  0  0  0  0  0  0  0
    4.3304   -0.4422    1.3837 C   0  0  0  0  0  0  0  0  0  0  0  0
    3.6163   -0.2176    0.2149 C   0  0  0  0  0  0  0  0  0  0  0  0
    4.5207    0.0458   -0.9447 C   0  0  0  0  0  0  0  0  0  0  0  0
    5.8135   -0.3631    1.1580 C   0  0  0  0  0  0  0  0  0  0  0  0
    5.9020   -0.3537   -0.3802 C   0  0  2  0  0  0  0  0  0  0  0  0
    7.0368    0.4820   -0.9104 C   0  0  0  0  0  0  0  0  0  0  0  0
    7.9280   -0.3226   -1.6044 C   0  0  0  0  0  0  0  0  0  0  0  0
    7.4876   -1.6275   -1.5898 N   0  0  0  0  0  0  0  0  0  0  0  0
    6.2967   -1.7586   -0.9000 C   0  0  0  0  0  0  0  0  0  0  0  0
    5.6783   -2.7985   -0.7493 O   0  0  0  0  0  0  0  0  0  0  0  0
    9.0446    0.0894   -2.2048 N   0  0  0  0  0  0  0  0  0  0  0  0
    7.2962    1.8351   -0.8074 C   0  0  0  0  0  0  0  0  0  0  0  0
    8.4543    2.3140   -1.4181 C   0  0  0  0  0  0  0  0  0  0  0  0
    9.2846    1.4172   -2.0942 C   0  0  0  0  0  0  0  0  0  0  0  0
   -8.2728    1.4764    2.9690 H   0  0  0  0  0  0  0  0  0  0  0  0
   -7.6204    3.8985    3.0077 H   0  0  0  0  0  0  0  0  0  0  0  0
   -4.4924   -0.7489    1.5048 H   0  0  0  0  0  0  0  0  0  0  0  0
   -5.7388   -0.6248   -0.5601 H   0  0  0  0  0  0  0  0  0  0  0  0
   -2.4975    1.1987    0.2753 H   0  0  0  0  0  0  0  0  0  0  0  0
   -2.5413    0.7298    1.9652 H   0  0  0  0  0  0  0  0  0  0  0  0
   -2.2474   -1.6389    1.3853 H   0  0  0  0  0  0  0  0  0  0  0  0
   -4.9544    0.6120   -2.5604 H   0  0  0  0  0  0  0  0  0  0  0  0
   -5.3080    1.7394   -1.2613 H   0  0  0  0  0  0  0  0  0  0  0  0
   -3.6273    1.3233   -1.6564 H   0  0  0  0  0  0  0  0  0  0  0  0
   -3.6135   -2.3818   -2.8993 H   0  0  0  0  0  0  0  0  0  0  0  0
   -5.2004   -1.6619   -2.6730 H   0  0  0  0  0  0  0  0  0  0  0  0
   -0.1748   -1.1490   -0.2666 H   0  0  0  0  0  0  0  0  0  0  0  0
    1.6647   -0.0164   -0.6524 H   0  0  0  0  0  0  0  0  0  0  0  0
    1.9764   -0.8233    3.5869 H   0  0  0  0  0  0  0  0  0  0  0  0
    4.4673    1.1082   -1.2073 H   0  0  0  0  0  0  0  0  0  0  0  0
    4.2301   -0.5537   -1.8136 H   0  0  0  0  0  0  0  0  0  0  0  0
    6.1909    0.5624    1.6076 H   0  0  0  0  0  0  0  0  0  0  0  0
    6.3202   -1.2199    1.6154 H   0  0  0  0  0  0  0  0  0  0  0  0
    7.9806   -2.3821   -2.0391 H   0  0  0  0  0  0  0  0  0  0  0  0
    6.6326    2.5062   -0.2720 H   0  0  0  0  0  0  0  0  0  0  0  0
    8.7127    3.3671   -1.3711 H   0  0  0  0  0  0  0  0  0  0  0  0
   10.1946    1.7621   -2.5790 H   0  0  0  0  0  0  0  0  0  0  0  0
  1  2  2  0
  2  3  1  0
  3  4  2  0
  4  5  1  0
  5  6  2  0
  1  6  1  0
  1  7  1  0
  4  8  1  0
  5  9  1  0
 10  6  1  0
 11 12  1  0
 13 14  1  0
 14 15  1  0
 11 15  1  0
 12 10  1  0
 10 13  1  0
 12 16  1  0
 11 17  1  0
 17 18  1  0
 18 19  1  0
 18 20  1  0
 18 21  1  0
 15 22  2  0
 14 23  1  0
 23 24  1  0
 24 25  2  0
 24 26  1  0
 28 29  1  0
 29 30  2  0
 30 31  1  0
 27 31  2  0
 27 26  1  0
 26 28  2  0
 31 32  1  0
 30 33  1  0
 34 32  1  6
 34 33  1  0
 34 35  1  0
 35 36  2  0
 36 37  1  0
 37 38  1  0
 38 34  1  0
 38 39  2  0
 36 40  1  0
 35 41  1  0
 41 42  2  0
 40 43  2  0
 43 42  1  0
  2 44  1  0
  3 45  1  0
 10 46  1  1
 12 47  1  1
 13 48  1  0
 13 49  1  0
 14 50  1  1
 16 51  1  0
 16 52  1  0
 16 53  1  0
 17 54  1  0
 17 55  1  0
 23 56  1  0
 27 57  1  0
 28 58  1  0
 32 59  1  0
 32 60  1  0
 33 61  1  0
 33 62  1  0
 37 63  1  0
 41 64  1  0
 42 65  1  0
 43 66  1  0
M  END
$$$$
