
     RDKit          3D

 43 48  0  0  0  0  0  0  0  0999 V2000
   -5.1023   -1.9043    1.4126 C   0  0  0  0  0  0  0  0  0  0  0  0
   -6.1113   -2.8139    1.7307 C   0  0  0  0  0  0  0  0  0  0  0  0
   -7.2021   -2.9668    0.9224 C   0  0  0  0  0  0  0  0  0  0  0  0
   -7.2909   -2.2024   -0.2213 C   0  0  0  0  0  0  0  0  0  0  0  0
   -6.3167   -1.2981   -0.5646 C   0  0  0  0  0  0  0  0  0  0  0  0
   -5.2103   -1.1594    0.2780 C   0  0  0  0  0  0  0  0  0  0  0  0
   -4.0504   -1.7933    2.2427 F   0  0  0  0  0  0  0  0  0  0  0  0
   -8.4077   -2.3971   -0.9960 F   0  0  0  0  0  0  0  0  0  0  0  0
   -6.4483   -0.5690   -1.6994 F   0  0  0  0  0  0  0  0  0  0  0  0
   -4.1816   -0.1963   -0.0960 C   0  0  1  0  0  0  0  0  0  0  0  0
   -3.3531    2.0331   -0.1982 N   0  0  0  0  0  0  0  0  0  0  0  0
   -4.3588    1.1875    0.4200 C   0  0  2  0  0  0  0  0  0  0  0  0
   -2.7763   -0.6543    0.1507 C   0  0  0  0  0  0  0  0  0  0  0  0
   -1.9110    0.0734   -0.8461 C   0  0  1  0  0  0  0  0  0  0  0  0
   -2.3277    1.4840   -1.0236 C   0  0  0  0  0  0  0  0  0  0  0  0
   -4.1009    1.2827    1.9279 C   0  0  0  0  0  0  0  0  0  0  0  0
   -3.3639    3.4707    0.0084 C   0  0  0  0  0  0  0  0  0  0  0  0
   -4.1695    4.2242   -1.0010 C   0  0  0  0  0  0  0  0  0  0  0  0
   -4.0711    5.5773   -0.6547 F   0  0  0  0  0  0  0  0  0  0  0  0
   -5.5072    3.9041   -0.9718 F   0  0  0  0  0  0  0  0  0  0  0  0
   -3.7078    4.1072   -2.2972 F   0  0  0  0  0  0  0  0  0  0  0  0
   -1.7441    2.1500   -1.9161 O   0  0  0  0  0  0  0  0  0  0  0  0
   -0.5118    0.0419   -0.5313 N   0  0  0  0  0  0  0  0  0  0  0  0
    0.0166   -0.6189    0.6220 C   0  0  0  0  0  0  0  0  0  0  0  0
   -0.8009   -1.2030    1.3989 O   0  0  0  0  0  0  0  0  0  0  0  0
    1.4489   -0.6143    0.8854 C   0  0  0  0  0  0  0  0  0  0  0  0
    2.3684    0.0096    0.0646 C   0  0  0  0  0  0  0  0  0  0  0  0
    1.9177   -1.2634    2.0088 C   0  0  0  0  0  0  0  0  0  0  0  0
    3.2317   -1.2773    2.2792 N   0  0  0  0  0  0  0  0  0  0  0  0
    4.1546   -0.6885    1.5150 C   0  0  0  0  0  0  0  0  0  0  0  0
    3.7236   -0.0229    0.3725 C   0  0  0  0  0  0  0  0  0  0  0  0
    4.9153    0.5620   -0.3346 C   0  0  0  0  0  0  0  0  0  0  0  0
    5.6495   -0.5488    1.5748 C   0  0  0  0  0  0  0  0  0  0  0  0
    5.9731   -0.4231    0.1111 C   0  0  2  0  0  0  0  0  0  0  0  0
    7.3447   -0.0159   -0.1863 C   0  0  0  0  0  0  0  0  0  0  0  0
    7.9319   -0.9541   -1.0326 C   0  0  0  0  0  0  0  0  0  0  0  0
    6.9962   -1.9901   -1.3196 N   0  0  0  0  0  0  0  0  0  0  0  0
    5.7898   -1.6856   -0.6296 C   0  0  0  0  0  0  0  0  0  0  0  0
    4.7586   -2.4150   -0.6793 O   0  0  0  0  0  0  0  0  0  0  0  0
    9.1966   -0.8356   -1.4730 N   0  0  0  0  0  0  0  0  0  0  0  0
    8.1607    1.0509    0.1695 C   0  0  0  0  0  0  0  0  0  0  0  0
    9.4576    1.1557   -0.2928 C   0  0  0  0  0  0  0  0  0  0  0  0
    9.9905    0.1973   -1.1300 C   0  0  0  0  0  0  0  0  0  0  0  0
  1  2  2  0
  2  3  1  0
  3  4  2  0
  4  5  1  0
  5  6  2  0
  1  6  1  0
  1  7  1  0
  4  8  1  0
  5  9  1  0
 10  6  1  1
 11 12  1  0
 13 14  1  0
 14 15  1  0
 11 15  1  0
 12 10  1  0
 10 13  1  0
 12 16  1  1
 11 17  1  0
 17 18  1  0
 18 19  1  0
 18 20  1  0
 18 21  1  0
 15 22  2  0
 14 23  1  1
 23 24  1  0
 24 25  2  0
 24 26  1  0
 28 29  1  0
 29 30  2  0
 30 31  1  0
 27 31  2  0
 27 26  1  0
 26 28  2  0
 31 32  1  0
 30 33  1  0
 34 32  1  6
 34 33  1  0
 34 35  1  0
 35 36  2  0
 36 37  1  0
 37 38  1  0
 38 34  1  0
 38 39  2  0
 36 40  1  0
 35 41  1  0
 41 42  2  0
 40 43  2  0
 43 42  1  0
M  END
