
     RDKit          3D

 92 91  0  0  0  0  0  0  0  0999 V2000
    3.8176   -0.1897   -1.0345 C   0  0  0  0  0  0  0  0  0  0  0  0
    2.4758   -0.5844   -1.1548 C   0  0  0  0  0  0  0  0  0  0  0  0
    1.4331    0.1102   -0.5076 C   0  0  0  0  0  0  0  0  0  0  0  0
    4.1040    0.9467   -0.2712 C   0  0  0  0  0  0  0  0  0  0  0  0
   -2.3868   -0.3471   -0.0155 N   0  0  0  0  0  0  0  0  0  0  0  0
    1.7666    1.2405    0.2539 C   0  0  0  0  0  0  0  0  0  0  0  0
   -3.5097    0.2358    0.7488 C   0  0  0  0  0  0  0  0  0  0  0  0
    3.0945    1.6581    0.3667 C   0  0  0  0  0  0  0  0  0  0  0  0
   -1.0834    0.3256    0.1686 C   0  0  0  0  0  0  0  0  0  0  0  0
    0.0062   -0.3752   -0.6888 C   0  0  2  0  0  0  0  0  0  0  0  0
    5.3819    1.3972   -0.1009 O   0  0  0  0  0  0  0  0  0  0  0  0
    4.8828   -0.9497   -1.7728 C   0  0  0  0  0  0  0  0  0  0  0  0
   -0.0409   -1.7813   -0.4085 O   0  0  0  0  0  0  0  0  0  0  0  0
    6.0532   -1.0266   -0.9579 O   0  0  0  0  0  0  0  0  0  0  0  0
   -3.2250    0.3163    2.2562 C   0  0  0  0  0  0  0  0  0  0  0  0
   -4.7096   -0.7063    0.5313 C   0  0  0  0  0  0  0  0  0  0  0  0
   -3.8898    1.6293    0.2167 C   0  0  0  0  0  0  0  0  0  0  0  0
    3.6475   -0.3417    0.2139 C   0  0  0  0  0  0  0  0  0  0  0  0
    2.3234   -0.6486   -0.1443 C   0  0  0  0  0  0  0  0  0  0  0  0
    1.3562    0.3612   -0.2904 C   0  0  0  0  0  0  0  0  0  0  0  0
    3.9799    0.9994    0.4310 C   0  0  0  0  0  0  0  0  0  0  0  0
   -2.1878    0.2118    0.7750 N   0  0  0  0  0  0  0  0  0  0  0  0
    1.7247    1.6936   -0.0518 C   0  0  0  0  0  0  0  0  0  0  0  0
   -3.3447   -0.0432   -0.1045 C   0  0  0  0  0  0  0  0  0  0  0  0
    3.0334    2.0138    0.3036 C   0  0  0  0  0  0  0  0  0  0  0  0
   -0.9089   -0.4758    0.5218 C   0  0  0  0  0  0  0  0  0  0  0  0
   -0.0739    0.0390   -0.6801 C   0  0  2  0  0  0  0  0  0  0  0  0
    5.2730    1.3097    0.7503 O   0  0  0  0  0  0  0  0  0  0  0  0
    4.6596   -1.4496    0.3894 C   0  0  0  0  0  0  0  0  0  0  0  0
   -0.0448   -0.9351   -1.7282 O   0  0  0  0  0  0  0  0  0  0  0  0
    5.8572   -1.2161   -0.3458 O   0  0  0  0  0  0  0  0  0  0  0  0
   -3.2141    0.6783   -1.4564 C   0  0  0  0  0  0  0  0  0  0  0  0
   -3.6300   -1.5353   -0.3261 C   0  0  0  0  0  0  0  0  0  0  0  0
   -4.5647    0.5707    0.6223 C   0  0  0  0  0  0  0  0  0  0  0  0
   -2.5072    0.3764   -0.9285 O   0  0  0  0  0  0  0  0  0  0  0  0
   -2.5489   -0.4807    1.1348 O   0  0  0  0  0  0  0  0  0  0  0  0
    2.7285    0.1733    0.1230 O   0  0  0  0  0  0  0  0  0  0  0  0
    1.5630    0.7079    1.9622 O   0  0  0  0  0  0  0  0  0  0  0  0
   -0.0663   -1.6085    0.8612 O   0  0  0  0  0  0  0  0  0  0  0  0
    0.8477    0.8160   -1.5500 O   0  0  0  0  0  0  0  0  0  0  0  0
   -1.9261   -0.2615    0.1043 C   0  0  0  0  0  0  0  0  0  0  0  0
   -0.4816   -0.6693   -0.1451 C   0  0  1  0  0  0  0  0  0  0  0  0
    0.3961    0.5876   -0.2012 C   0  0  1  0  0  0  0  0  0  0  0  0
    1.5791    0.5071    0.7576 C   0  0  0  0  0  0  0  0  0  0  0  0
    2.2242   -1.4573   -1.7598 H   0  0  0  0  0  0  0  0  0  0  0  0
   -2.6308   -0.3314   -1.0065 H   0  0  0  0  0  0  0  0  0  0  0  0
    1.0089    1.8242    0.7731 H   0  0  0  0  0  0  0  0  0  0  0  0
    3.3434    2.5329    0.9594 H   0  0  0  0  0  0  0  0  0  0  0  0
   -0.7854    0.2486    1.2201 H   0  0  0  0  0  0  0  0  0  0  0  0
   -1.1398    1.3822   -0.1083 H   0  0  0  0  0  0  0  0  0  0  0  0
   -0.2577   -0.2458   -1.7460 H   0  0  0  0  0  0  0  0  0  0  0  0
    5.9835    0.6958   -0.4299 H   0  0  0  0  0  0  0  0  0  0  0  0
    5.1413   -0.4204   -2.6969 H   0  0  0  0  0  0  0  0  0  0  0  0
    4.5627   -1.9709   -2.0217 H   0  0  0  0  0  0  0  0  0  0  0  0
   -0.9663   -1.9486   -0.1396 H   0  0  0  0  0  0  0  0  0  0  0  0
    5.8622   -1.7363   -0.3105 H   0  0  0  0  0  0  0  0  0  0  0  0
   -4.1234    0.6265    2.8042 H   0  0  0  0  0  0  0  0  0  0  0  0
   -2.9119   -0.6571    2.6569 H   0  0  0  0  0  0  0  0  0  0  0  0
   -2.4427    1.0482    2.4865 H   0  0  0  0  0  0  0  0  0  0  0  0
   -5.6020   -0.3285    1.0492 H   0  0  0  0  0  0  0  0  0  0  0  0
   -4.9571   -0.8087   -0.5339 H   0  0  0  0  0  0  0  0  0  0  0  0
   -4.5001   -1.7109    0.9210 H   0  0  0  0  0  0  0  0  0  0  0  0
   -3.1003    2.3645    0.4045 H   0  0  0  0  0  0  0  0  0  0  0  0
   -4.7965    2.0015    0.7092 H   0  0  0  0  0  0  0  0  0  0  0  0
   -4.0826    1.6036   -0.8608 H   0  0  0  0  0  0  0  0  0  0  0  0
    2.0409   -1.6829   -0.3340 H   0  0  0  0  0  0  0  0  0  0  0  0
   -2.4573   -0.0050    1.7371 H   0  0  0  0  0  0  0  0  0  0  0  0
    0.9907    2.4936   -0.1558 H   0  0  0  0  0  0  0  0  0  0  0  0
    3.2958    3.0552    0.4626 H   0  0  0  0  0  0  0  0  0  0  0  0
   -1.0604   -1.5568    0.4638 H   0  0  0  0  0  0  0  0  0  0  0  0
   -0.3265   -0.3160    1.4365 H   0  0  0  0  0  0  0  0  0  0  0  0
   -0.5220    0.9435   -1.1052 H   0  0  0  0  0  0  0  0  0  0  0  0
    5.3266    2.2677    0.9178 H   0  0  0  0  0  0  0  0  0  0  0  0
    4.9193   -1.5411    1.4480 H   0  0  0  0  0  0  0  0  0  0  0  0
    4.2559   -2.4154    0.0672 H   0  0  0  0  0  0  0  0  0  0  0  0
   -0.9550   -1.2567   -1.8513 H   0  0  0  0  0  0  0  0  0  0  0  0
    5.9584   -0.2487   -0.3742 H   0  0  0  0  0  0  0  0  0  0  0  0
   -2.4661    0.2176   -2.1046 H   0  0  0  0  0  0  0  0  0  0  0  0
   -4.1609    0.6488   -2.0080 H   0  0  0  0  0  0  0  0  0  0  0  0
   -2.9506    1.7335   -1.3215 H   0  0  0  0  0  0  0  0  0  0  0  0
   -2.8363   -2.0269   -0.8973 H   0  0  0  0  0  0  0  0  0  0  0  0
   -3.7401   -2.0641    0.6232 H   0  0  0  0  0  0  0  0  0  0  0  0
   -4.5598   -1.6694   -0.8884 H   0  0  0  0  0  0  0  0  0  0  0  0
   -5.4711    0.5053    0.0080 H   0  0  0  0  0  0  0  0  0  0  0  0
   -4.7666    0.0560    1.5680 H   0  0  0  0  0  0  0  0  0  0  0  0
   -4.4008    1.6298    0.8476 H   0  0  0  0  0  0  0  0  0  0  0  0
   -3.4252    0.5661   -0.6382 H   0  0  0  0  0  0  0  0  0  0  0  0
    3.3925    0.1253    0.8463 H   0  0  0  0  0  0  0  0  0  0  0  0
   -0.6414   -1.4640    1.6447 H   0  0  0  0  0  0  0  0  0  0  0  0
    1.7049    0.3494   -1.6252 H   0  0  0  0  0  0  0  0  0  0  0  0
   -0.4517   -1.2156   -1.0940 H   0  0  0  0  0  0  0  0  0  0  0  0
   -0.1634    1.4904    0.0738 H   0  0  0  0  0  0  0  0  0  0  0  0
 10  3  1  0
 11  4  1  0
 12  1  1  0
 10 13  1  0
 14 12  1  0
 15  7  1  0
 16  7  1  0
 17  7  1  0
  6  8  1  0
  2  1  2  0
  3  2  1  0
  4  1  1  0
  5  9  1  0
  6  3  2  0
  7  5  1  0
  8  4  2  0
  9 10  1  0
 27 20  1  0
 28 21  1  0
 29 18  1  0
 27 30  1  0
 31 29  1  0
 32 24  1  0
 33 24  1  0
 34 24  1  0
 23 25  1  0
 19 18  2  0
 20 19  1  0
 21 18  1  0
 22 26  1  0
 23 20  2  0
 24 22  1  0
 25 21  2  0
 26 27  1  0
 41 36  2  0
 42 39  1  0
 43 40  1  0
 41 35  1  0
 43 44  1  0
 42 43  1  0
 44 37  1  0
 41 42  1  0
 44 38  2  0
  2 45  1  0
  5 46  1  0
  6 47  1  0
  8 48  1  0
  9 49  1  0
  9 50  1  0
 10 51  1  6
 11 52  1  0
 12 53  1  0
 12 54  1  0
 13 55  1  0
 14 56  1  0
 15 57  1  0
 15 58  1  0
 15 59  1  0
 16 60  1  0
 16 61  1  0
 16 62  1  0
 17 63  1  0
 17 64  1  0
 17 65  1  0
 19 66  1  0
 22 67  1  0
 23 68  1  0
 25 69  1  0
 26 70  1  0
 26 71  1  0
 27 72  1  6
 28 73  1  0
 29 74  1  0
 29 75  1  0
 30 76  1  0
 31 77  1  0
 32 78  1  0
 32 79  1  0
 32 80  1  0
 33 81  1  0
 33 82  1  0
 33 83  1  0
 34 84  1  0
 34 85  1  0
 34 86  1  0
 35 87  1  0
 37 88  1  0
 39 89  1  0
 40 90  1  0
 42 91  1  6
 43 92  1  1
M  END
$$$$
