
     RDKit          3D

 92 91  0  0  0  0  0  0  0  0999 V2000
    3.5662   -0.1995   -0.1388 C   0  0  0  0  0  0  0  0  0  0  0  0
    2.1904   -0.2828   -0.4153 C   0  0  0  0  0  0  0  0  0  0  0  0
    1.3282    0.8016   -0.1750 C   0  0  0  0  0  0  0  0  0  0  0  0
    4.0682    0.9953    0.3837 C   0  0  0  0  0  0  0  0  0  0  0  0
   -2.2522   -0.2277    0.7564 N   0  0  0  0  0  0  0  0  0  0  0  0
    1.8664    1.9879    0.3392 C   0  0  0  0  0  0  0  0  0  0  0  0
   -3.2908   -0.3177   -0.2911 C   0  0  0  0  0  0  0  0  0  0  0  0
    3.2304    2.0845    0.6197 C   0  0  0  0  0  0  0  0  0  0  0  0
   -0.8376   -0.4187    0.3749 C   0  0  0  0  0  0  0  0  0  0  0  0
   -0.1597    0.6954   -0.4659 C   0  0  2  0  0  0  0  0  0  0  0  0
    5.3999    1.0848    0.6721 O   0  0  0  0  0  0  0  0  0  0  0  0
    4.4364   -1.4027   -0.3891 C   0  0  0  0  0  0  0  0  0  0  0  0
   -0.3161    0.4386   -1.8657 O   0  0  0  0  0  0  0  0  0  0  0  0
    4.1009   -2.4415    0.5231 O   0  0  0  0  0  0  0  0  0  0  0  0
   -3.0715   -1.4516   -1.3048 C   0  0  0  0  0  0  0  0  0  0  0  0
   -3.4605    1.0290   -1.0104 C   0  0  0  0  0  0  0  0  0  0  0  0
   -4.6157   -0.6039    0.4535 C   0  0  0  0  0  0  0  0  0  0  0  0
    3.4853    0.1474   -0.1992 C   0  0  0  0  0  0  0  0  0  0  0  0
    2.1443    0.4784    0.0669 C   0  0  0  0  0  0  0  0  0  0  0  0
    1.3042   -0.3822    0.7939 C   0  0  0  0  0  0  0  0  0  0  0  0
    3.9795   -1.0640    0.2949 C   0  0  0  0  0  0  0  0  0  0  0  0
   -2.2999    1.0298    0.3211 N   0  0  0  0  0  0  0  0  0  0  0  0
    1.8464   -1.5762    1.2932 C   0  0  0  0  0  0  0  0  0  0  0  0
   -3.2890    0.1708   -0.3472 C   0  0  0  0  0  0  0  0  0  0  0  0
    3.1748   -1.9213    1.0416 C   0  0  0  0  0  0  0  0  0  0  0  0
   -0.8794    0.7883    0.0132 C   0  0  0  0  0  0  0  0  0  0  0  0
   -0.1475   -0.0574    1.0944 C   0  0  2  0  0  0  0  0  0  0  0  0
    5.2794   -1.3991    0.0353 O   0  0  0  0  0  0  0  0  0  0  0  0
    4.3877    1.0536   -0.9989 C   0  0  0  0  0  0  0  0  0  0  0  0
   -0.2259    0.6179    2.3578 O   0  0  0  0  0  0  0  0  0  0  0  0
    3.7061    2.2121   -1.4727 O   0  0  0  0  0  0  0  0  0  0  0  0
   -3.3460    0.4855   -1.8527 C   0  0  0  0  0  0  0  0  0  0  0  0
   -4.6581    0.5215    0.2676 C   0  0  0  0  0  0  0  0  0  0  0  0
   -3.0410   -1.3290   -0.1344 C   0  0  0  0  0  0  0  0  0  0  0  0
    2.0358    1.1450   -0.0759 O   0  0  0  0  0  0  0  0  0  0  0  0
    0.9066    1.3466   -1.9936 O   0  0  0  0  0  0  0  0  0  0  0  0
   -0.9938    1.5369    0.8878 O   0  0  0  0  0  0  0  0  0  0  0  0
   -2.3564   -0.1658    1.3416 O   0  0  0  0  0  0  0  0  0  0  0  0
   -0.5927   -0.9479   -1.5052 O   0  0  0  0  0  0  0  0  0  0  0  0
   -0.3104   -2.0226    1.1899 O   0  0  0  0  0  0  0  0  0  0  0  0
    1.1180    0.7197   -0.9645 C   0  0  0  0  0  0  0  0  0  0  0  0
    0.4762   -0.6139   -0.6082 C   0  0  1  0  0  0  0  0  0  0  0  0
   -0.0084   -0.6608    0.8389 C   0  0  1  0  0  0  0  0  0  0  0  0
   -1.2362    0.2204    1.0415 C   0  0  0  0  0  0  0  0  0  0  0  0
    1.7877   -1.2158   -0.8157 H   0  0  0  0  0  0  0  0  0  0  0  0
   -2.4592   -0.9268    1.4734 H   0  0  0  0  0  0  0  0  0  0  0  0
    1.2238    2.8454    0.5308 H   0  0  0  0  0  0  0  0  0  0  0  0
    3.6179    3.0157    1.0252 H   0  0  0  0  0  0  0  0  0  0  0  0
   -0.3065   -0.4790    1.3359 H   0  0  0  0  0  0  0  0  0  0  0  0
   -0.7019   -1.4000   -0.0966 H   0  0  0  0  0  0  0  0  0  0  0  0
   -0.6387    1.6595   -0.2521 H   0  0  0  0  0  0  0  0  0  0  0  0
    5.6009    1.9849    0.9783 H   0  0  0  0  0  0  0  0  0  0  0  0
    4.2834   -1.7716   -1.4096 H   0  0  0  0  0  0  0  0  0  0  0  0
    5.5018   -1.1828   -0.2767 H   0  0  0  0  0  0  0  0  0  0  0  0
    0.4423    0.8428   -2.3205 H   0  0  0  0  0  0  0  0  0  0  0  0
    3.9624   -2.0117    1.3850 H   0  0  0  0  0  0  0  0  0  0  0  0
   -3.9322   -1.5440   -1.9769 H   0  0  0  0  0  0  0  0  0  0  0  0
   -2.1958   -1.2811   -1.9370 H   0  0  0  0  0  0  0  0  0  0  0  0
   -2.9417   -2.4157   -0.8017 H   0  0  0  0  0  0  0  0  0  0  0  0
   -2.6151    1.2727   -1.6558 H   0  0  0  0  0  0  0  0  0  0  0  0
   -3.5775    1.8489   -0.2907 H   0  0  0  0  0  0  0  0  0  0  0  0
   -4.3535    1.0208   -1.6470 H   0  0  0  0  0  0  0  0  0  0  0  0
   -4.8245    0.1609    1.2098 H   0  0  0  0  0  0  0  0  0  0  0  0
   -4.5918   -1.5761    0.9593 H   0  0  0  0  0  0  0  0  0  0  0  0
   -5.4648   -0.6182   -0.2394 H   0  0  0  0  0  0  0  0  0  0  0  0
    1.7644    1.4275   -0.3077 H   0  0  0  0  0  0  0  0  0  0  0  0
   -2.4070    0.9900    1.3389 H   0  0  0  0  0  0  0  0  0  0  0  0
    1.2269   -2.2479    1.8857 H   0  0  0  0  0  0  0  0  0  0  0  0
    3.5598   -2.8554    1.4388 H   0  0  0  0  0  0  0  0  0  0  0  0
   -0.4244    1.7856   -0.0101 H   0  0  0  0  0  0  0  0  0  0  0  0
   -0.7366    0.3545   -0.9819 H   0  0  0  0  0  0  0  0  0  0  0  0
   -0.6886   -1.0033    1.2151 H   0  0  0  0  0  0  0  0  0  0  0  0
    5.4281   -2.3133    0.3278 H   0  0  0  0  0  0  0  0  0  0  0  0
    4.7679    0.5125   -1.8720 H   0  0  0  0  0  0  0  0  0  0  0  0
    5.2303    1.3832   -0.3806 H   0  0  0  0  0  0  0  0  0  0  0  0
    0.6063    1.1098    2.4695 H   0  0  0  0  0  0  0  0  0  0  0  0
    4.3544    2.7174   -1.9919 H   0  0  0  0  0  0  0  0  0  0  0  0
   -2.4216    0.2101   -2.3703 H   0  0  0  0  0  0  0  0  0  0  0  0
   -4.1606   -0.0674   -2.3323 H   0  0  0  0  0  0  0  0  0  0  0  0
   -3.5284    1.5528   -2.0273 H   0  0  0  0  0  0  0  0  0  0  0  0
   -5.4620   -0.0602   -0.1973 H   0  0  0  0  0  0  0  0  0  0  0  0
   -4.8992    1.5822    0.1290 H   0  0  0  0  0  0  0  0  0  0  0  0
   -4.6810    0.3101    1.3438 H   0  0  0  0  0  0  0  0  0  0  0  0
   -2.1050   -1.6572   -0.5955 H   0  0  0  0  0  0  0  0  0  0  0  0
   -3.8436   -1.9267   -0.5800 H   0  0  0  0  0  0  0  0  0  0  0  0
   -3.0008   -1.5802    0.9311 H   0  0  0  0  0  0  0  0  0  0  0  0
    2.3608    1.9933   -0.4472 H   0  0  0  0  0  0  0  0  0  0  0  0
   -1.8631    1.9574    1.0616 H   0  0  0  0  0  0  0  0  0  0  0  0
   -0.3337   -0.5952   -2.3806 H   0  0  0  0  0  0  0  0  0  0  0  0
   -1.2078   -2.1967    0.8338 H   0  0  0  0  0  0  0  0  0  0  0  0
    1.2432   -1.3831   -0.7636 H   0  0  0  0  0  0  0  0  0  0  0  0
    0.7619   -0.3333    1.5439 H   0  0  0  0  0  0  0  0  0  0  0  0
 10  3  1  0
 11  4  1  0
 12  1  1  0
 10 13  1  0
 14 12  1  0
 15  7  1  0
 16  7  1  0
 17  7  1  0
  6  8  1  0
  2  1  2  0
  3  2  1  0
  4  1  1  0
  5  9  1  0
  6  3  2  0
  7  5  1  0
  8  4  2  0
  9 10  1  0
 27 20  1  0
 28 21  1  0
 29 18  1  0
 27 30  1  0
 31 29  1  0
 32 24  1  0
 33 24  1  0
 34 24  1  0
 23 25  1  0
 19 18  2  0
 20 19  1  0
 21 18  1  0
 22 26  1  0
 23 20  2  0
 24 22  1  0
 25 21  2  0
 26 27  1  0
 41 36  2  0
 42 39  1  0
 43 40  1  0
 41 35  1  0
 43 44  1  0
 42 43  1  0
 44 37  1  0
 41 42  1  0
 44 38  2  0
  2 45  1  0
  5 46  1  0
  6 47  1  0
  8 48  1  0
  9 49  1  0
  9 50  1  0
 10 51  1  1
 11 52  1  0
 12 53  1  0
 12 54  1  0
 13 55  1  0
 14 56  1  0
 15 57  1  0
 15 58  1  0
 15 59  1  0
 16 60  1  0
 16 61  1  0
 16 62  1  0
 17 63  1  0
 17 64  1  0
 17 65  1  0
 19 66  1  0
 22 67  1  0
 23 68  1  0
 25 69  1  0
 26 70  1  0
 26 71  1  0
 27 72  1  1
 28 73  1  0
 29 74  1  0
 29 75  1  0
 30 76  1  0
 31 77  1  0
 32 78  1  0
 32 79  1  0
 32 80  1  0
 33 81  1  0
 33 82  1  0
 33 83  1  0
 34 84  1  0
 34 85  1  0
 34 86  1  0
 35 87  1  0
 37 88  1  0
 39 89  1  0
 40 90  1  0
 42 91  1  1
 43 92  1  1
M  END
$$$$
