
     RDKit          3D

 92 91  0  0  0  0  0  0  0  0999 V2000
    3.5584   -0.0862    0.2138 C   0  0  0  0  0  0  0  0  0  0  0  0
    2.3913   -0.7918    0.5717 C   0  0  0  0  0  0  0  0  0  0  0  0
    1.1036   -0.2685    0.3429 C   0  0  0  0  0  0  0  0  0  0  0  0
    3.4012    1.1795   -0.3645 C   0  0  0  0  0  0  0  0  0  0  0  0
   -1.8396   -0.3860   -1.0969 N   0  0  0  0  0  0  0  0  0  0  0  0
    0.9960    0.9969   -0.2460 C   0  0  0  0  0  0  0  0  0  0  0  0
   -3.0986    0.1355   -0.5168 C   0  0  0  0  0  0  0  0  0  0  0  0
    2.1376    1.7151   -0.5984 C   0  0  0  0  0  0  0  0  0  0  0  0
   -1.1056   -1.4390   -0.3699 C   0  0  0  0  0  0  0  0  0  0  0  0
   -0.1232   -1.0548    0.7747 C   0  0  2  0  0  0  0  0  0  0  0  0
    4.4659    1.9552   -0.7279 O   0  0  0  0  0  0  0  0  0  0  0  0
    4.8895   -0.7432    0.4788 C   0  0  0  0  0  0  0  0  0  0  0  0
   -0.7842   -0.4152    1.8655 O   0  0  0  0  0  0  0  0  0  0  0  0
    5.9869    0.0647    0.0508 O   0  0  0  0  0  0  0  0  0  0  0  0
   -4.0633    0.3764   -1.7012 C   0  0  0  0  0  0  0  0  0  0  0  0
   -2.8269    1.5033    0.1320 C   0  0  0  0  0  0  0  0  0  0  0  0
   -3.8223   -0.7836    0.4828 C   0  0  0  0  0  0  0  0  0  0  0  0
    3.6298   -0.3081    0.3491 C   0  0  0  0  0  0  0  0  0  0  0  0
    2.3454   -0.0841    0.8818 C   0  0  0  0  0  0  0  0  0  0  0  0
    1.4650    0.8557    0.3160 C   0  0  0  0  0  0  0  0  0  0  0  0
    4.0153    0.4469   -0.7664 C   0  0  0  0  0  0  0  0  0  0  0  0
   -2.3159    0.4279    0.6455 N   0  0  0  0  0  0  0  0  0  0  0  0
    1.8902    1.5899   -0.7992 C   0  0  0  0  0  0  0  0  0  0  0  0
   -3.4243   -0.2162   -0.0907 C   0  0  0  0  0  0  0  0  0  0  0  0
    3.1619    1.3887   -1.3349 C   0  0  0  0  0  0  0  0  0  0  0  0
   -0.9625    0.1669    0.1115 C   0  0  0  0  0  0  0  0  0  0  0  0
    0.0728    1.0242    0.8828 C   0  0  2  0  0  0  0  0  0  0  0  0
    5.2392    0.2990   -1.3600 O   0  0  0  0  0  0  0  0  0  0  0  0
    4.5196   -1.3128    1.0386 C   0  0  0  0  0  0  0  0  0  0  0  0
   -0.3272    2.3995    0.8311 O   0  0  0  0  0  0  0  0  0  0  0  0
    5.6917   -1.6071    0.2748 O   0  0  0  0  0  0  0  0  0  0  0  0
   -3.5710    0.3748   -1.5036 C   0  0  0  0  0  0  0  0  0  0  0  0
   -3.2630   -1.7444   -0.1738 C   0  0  0  0  0  0  0  0  0  0  0  0
   -4.7097    0.1000    0.7004 C   0  0  0  0  0  0  0  0  0  0  0  0
   -0.5310    0.3373    1.9469 O   0  0  0  0  0  0  0  0  0  0  0  0
   -2.0560    1.5452    0.8571 O   0  0  0  0  0  0  0  0  0  0  0  0
    2.1469   -0.7419    0.5520 O   0  0  0  0  0  0  0  0  0  0  0  0
    0.7459   -2.4604    0.3086 O   0  0  0  0  0  0  0  0  0  0  0  0
   -0.4227    1.8913   -1.3400 O   0  0  0  0  0  0  0  0  0  0  0  0
   -1.0223   -0.9585   -1.2487 O   0  0  0  0  0  0  0  0  0  0  0  0
   -0.9614    0.9986    0.8555 C   0  0  0  0  0  0  0  0  0  0  0  0
    0.0363    1.0137   -0.2967 C   0  0  1  0  0  0  0  0  0  0  0  0
    0.2383   -0.3833   -0.8782 C   0  0  1  0  0  0  0  0  0  0  0  0
    1.0239   -1.2949    0.0583 C   0  0  0  0  0  0  0  0  0  0  0  0
    2.4912   -1.7734    1.0336 H   0  0  0  0  0  0  0  0  0  0  0  0
   -2.0359   -0.7520   -2.0296 H   0  0  0  0  0  0  0  0  0  0  0  0
    0.0230    1.4406   -0.4349 H   0  0  0  0  0  0  0  0  0  0  0  0
    2.0432    2.6994   -1.0507 H   0  0  0  0  0  0  0  0  0  0  0  0
   -1.8012   -2.2024   -0.0037 H   0  0  0  0  0  0  0  0  0  0  0  0
   -0.5018   -1.9568   -1.1281 H   0  0  0  0  0  0  0  0  0  0  0  0
    0.2253   -2.0114    1.1843 H   0  0  0  0  0  0  0  0  0  0  0  0
    5.2704    1.4489   -0.4820 H   0  0  0  0  0  0  0  0  0  0  0  0
    5.0055   -0.9234    1.5516 H   0  0  0  0  0  0  0  0  0  0  0  0
    4.9392   -1.6963   -0.0553 H   0  0  0  0  0  0  0  0  0  0  0  0
   -0.3561    0.4476    1.9939 H   0  0  0  0  0  0  0  0  0  0  0  0
    6.7334   -0.5397   -0.1068 H   0  0  0  0  0  0  0  0  0  0  0  0
   -5.0055    0.8155   -1.3606 H   0  0  0  0  0  0  0  0  0  0  0  0
   -4.3059   -0.5611   -2.2164 H   0  0  0  0  0  0  0  0  0  0  0  0
   -3.6325    1.0650   -2.4362 H   0  0  0  0  0  0  0  0  0  0  0  0
   -3.7635    1.9747    0.4549 H   0  0  0  0  0  0  0  0  0  0  0  0
   -2.3504    2.1890   -0.5797 H   0  0  0  0  0  0  0  0  0  0  0  0
   -2.1798    1.4309    1.0105 H   0  0  0  0  0  0  0  0  0  0  0  0
   -4.7668   -0.3325    0.8141 H   0  0  0  0  0  0  0  0  0  0  0  0
   -3.2304   -0.9694    1.3847 H   0  0  0  0  0  0  0  0  0  0  0  0
   -4.0682   -1.7514    0.0304 H   0  0  0  0  0  0  0  0  0  0  0  0
    2.0250   -0.6506    1.7557 H   0  0  0  0  0  0  0  0  0  0  0  0
   -2.3437    0.1207    1.6200 H   0  0  0  0  0  0  0  0  0  0  0  0
    1.2307    2.3282   -1.2529 H   0  0  0  0  0  0  0  0  0  0  0  0
    3.4875    1.9668   -2.1964 H   0  0  0  0  0  0  0  0  0  0  0  0
   -0.6982   -0.8938    0.2039 H   0  0  0  0  0  0  0  0  0  0  0  0
   -0.9229    0.4419   -0.9497 H   0  0  0  0  0  0  0  0  0  0  0  0
    0.0724    0.7437    1.9436 H   0  0  0  0  0  0  0  0  0  0  0  0
    5.6655   -0.4663   -0.9157 H   0  0  0  0  0  0  0  0  0  0  0  0
    3.9752   -2.2505    1.1865 H   0  0  0  0  0  0  0  0  0  0  0  0
    4.8377   -0.9131    2.0062 H   0  0  0  0  0  0  0  0  0  0  0  0
   -1.3054    2.3650    0.8278 H   0  0  0  0  0  0  0  0  0  0  0  0
    6.1818   -2.2857    0.7758 H   0  0  0  0  0  0  0  0  0  0  0  0
   -2.7397    0.0914   -2.1573 H   0  0  0  0  0  0  0  0  0  0  0  0
   -3.6165    1.4702   -1.4710 H   0  0  0  0  0  0  0  0  0  0  0  0
   -4.4924    0.0193   -1.9807 H   0  0  0  0  0  0  0  0  0  0  0  0
   -4.1608   -2.2100   -0.5963 H   0  0  0  0  0  0  0  0  0  0  0  0
   -2.4230   -2.0312   -0.8148 H   0  0  0  0  0  0  0  0  0  0  0  0
   -3.1006   -2.1836    0.8177 H   0  0  0  0  0  0  0  0  0  0  0  0
   -4.8890    1.1790    0.7591 H   0  0  0  0  0  0  0  0  0  0  0  0
   -4.6571   -0.2850    1.7255 H   0  0  0  0  0  0  0  0  0  0  0  0
   -5.5837   -0.3572    0.2254 H   0  0  0  0  0  0  0  0  0  0  0  0
   -1.2755    0.4218    2.5799 H   0  0  0  0  0  0  0  0  0  0  0  0
    2.5291   -1.4453    1.1192 H   0  0  0  0  0  0  0  0  0  0  0  0
   -1.4019    1.8382   -1.3243 H   0  0  0  0  0  0  0  0  0  0  0  0
   -0.8393   -1.8985   -1.4547 H   0  0  0  0  0  0  0  0  0  0  0  0
    0.9704    1.4476    0.0717 H   0  0  0  0  0  0  0  0  0  0  0  0
    0.8193   -0.3108   -1.8065 H   0  0  0  0  0  0  0  0  0  0  0  0
 10  3  1  0
 11  4  1  0
 12  1  1  0
 10 13  1  0
 14 12  1  0
 15  7  1  0
 16  7  1  0
 17  7  1  0
  6  8  1  0
  2  1  2  0
  3  2  1  0
  4  1  1  0
  5  9  1  0
  6  3  2  0
  7  5  1  0
  8  4  2  0
  9 10  1  0
 27 20  1  0
 28 21  1  0
 29 18  1  0
 27 30  1  0
 31 29  1  0
 32 24  1  0
 33 24  1  0
 34 24  1  0
 23 25  1  0
 19 18  2  0
 20 19  1  0
 21 18  1  0
 22 26  1  0
 23 20  2  0
 24 22  1  0
 25 21  2  0
 26 27  1  0
 41 36  2  0
 42 39  1  0
 43 40  1  0
 41 35  1  0
 43 44  1  0
 42 43  1  0
 44 37  1  0
 41 42  1  0
 44 38  2  0
  2 45  1  0
  5 46  1  0
  6 47  1  0
  8 48  1  0
  9 49  1  0
  9 50  1  0
 10 51  1  1
 11 52  1  0
 12 53  1  0
 12 54  1  0
 13 55  1  0
 14 56  1  0
 15 57  1  0
 15 58  1  0
 15 59  1  0
 16 60  1  0
 16 61  1  0
 16 62  1  0
 17 63  1  0
 17 64  1  0
 17 65  1  0
 19 66  1  0
 22 67  1  0
 23 68  1  0
 25 69  1  0
 26 70  1  0
 26 71  1  0
 27 72  1  1
 28 73  1  0
 29 74  1  0
 29 75  1  0
 30 76  1  0
 31 77  1  0
 32 78  1  0
 32 79  1  0
 32 80  1  0
 33 81  1  0
 33 82  1  0
 33 83  1  0
 34 84  1  0
 34 85  1  0
 34 86  1  0
 35 87  1  0
 37 88  1  0
 39 89  1  0
 40 90  1  0
 42 91  1  1
 43 92  1  6
M  END
$$$$
