
     RDKit          3D

 92 91  0  0  0  0  0  0  0  0999 V2000
    3.5074    0.2162   -0.1769 C   0  0  0  0  0  0  0  0  0  0  0  0
    2.1100    0.0303   -0.2530 C   0  0  0  0  0  0  0  0  0  0  0  0
    1.4942   -1.1153    0.2759 C   0  0  0  0  0  0  0  0  0  0  0  0
    4.2824   -0.7788    0.4239 C   0  0  0  0  0  0  0  0  0  0  0  0
   -2.3157   -0.6418   -0.3042 N   0  0  0  0  0  0  0  0  0  0  0  0
    2.3146   -2.0974    0.8584 C   0  0  0  0  0  0  0  0  0  0  0  0
   -3.3161    0.4346   -0.3400 C   0  0  0  0  0  0  0  0  0  0  0  0
    3.6973   -1.9342    0.9340 C   0  0  0  0  0  0  0  0  0  0  0  0
   -0.9023   -0.2295   -0.3214 C   0  0  0  0  0  0  0  0  0  0  0  0
   -0.0032   -1.3675    0.2363 C   0  0  2  0  0  0  0  0  0  0  0  0
    5.6351   -0.6257    0.5009 O   0  0  0  0  0  0  0  0  0  0  0  0
    4.1412    1.4582   -0.7580 C   0  0  0  0  0  0  0  0  0  0  0  0
   -0.4567   -1.6386    1.5787 O   0  0  0  0  0  0  0  0  0  0  0  0
    3.6738    2.6403   -0.1154 O   0  0  0  0  0  0  0  0  0  0  0  0
   -4.6597   -0.2443   -0.6661 C   0  0  0  0  0  0  0  0  0  0  0  0
   -3.0272    1.4841   -1.4230 C   0  0  0  0  0  0  0  0  0  0  0  0
   -3.4346    1.1146    1.0367 C   0  0  0  0  0  0  0  0  0  0  0  0
    3.1600    0.6253   -0.2770 C   0  0  0  0  0  0  0  0  0  0  0  0
    2.2444   -0.4086   -0.5254 C   0  0  0  0  0  0  0  0  0  0  0  0
    1.3650   -0.8722    0.4709 C   0  0  0  0  0  0  0  0  0  0  0  0
    3.1975    1.1756    1.0083 C   0  0  0  0  0  0  0  0  0  0  0  0
   -1.5477   -0.4822   -0.4352 N   0  0  0  0  0  0  0  0  0  0  0  0
    1.4204   -0.2839    1.7417 C   0  0  0  0  0  0  0  0  0  0  0  0
   -2.9146    0.0082   -0.1836 C   0  0  0  0  0  0  0  0  0  0  0  0
    2.3347    0.7361    2.0109 C   0  0  0  0  0  0  0  0  0  0  0  0
   -1.0985   -1.6092    0.3900 C   0  0  0  0  0  0  0  0  0  0  0  0
    0.3859   -1.9859    0.1346 C   0  0  2  0  0  0  0  0  0  0  0  0
    4.0915    2.1794    1.2633 O   0  0  0  0  0  0  0  0  0  0  0  0
    4.1015    1.0651   -1.3675 C   0  0  0  0  0  0  0  0  0  0  0  0
    0.7105   -3.1602    0.8847 O   0  0  0  0  0  0  0  0  0  0  0  0
    4.1605    2.4790   -1.4909 O   0  0  0  0  0  0  0  0  0  0  0  0
   -3.1841    1.0847   -1.2569 C   0  0  0  0  0  0  0  0  0  0  0  0
   -3.9658   -1.1037   -0.3369 C   0  0  0  0  0  0  0  0  0  0  0  0
   -3.0318    0.6611    1.2048 C   0  0  0  0  0  0  0  0  0  0  0  0
    2.3301   -0.8953    0.8518 O   0  0  0  0  0  0  0  0  0  0  0  0
    0.3975   -1.9873    0.6430 O   0  0  0  0  0  0  0  0  0  0  0  0
   -2.4988    0.1503    0.6652 O   0  0  0  0  0  0  0  0  0  0  0  0
   -2.0097   -0.8515   -1.2739 O   0  0  0  0  0  0  0  0  0  0  0  0
    1.8860    0.8726   -1.0254 O   0  0  0  0  0  0  0  0  0  0  0  0
   -0.1924    1.4026    0.9286 O   0  0  0  0  0  0  0  0  0  0  0  0
    1.1165   -1.0704    0.2830 C   0  0  0  0  0  0  0  0  0  0  0  0
    0.7903   -0.0196   -0.7779 C   0  0  1  0  0  0  0  0  0  0  0  0
   -0.4307    0.7929   -0.3463 C   0  0  1  0  0  0  0  0  0  0  0  0
   -1.6869   -0.0715   -0.3958 C   0  0  0  0  0  0  0  0  0  0  0  0
    1.5131    0.7998   -0.7381 H   0  0  0  0  0  0  0  0  0  0  0  0
   -2.4631   -1.2203    0.5320 H   0  0  0  0  0  0  0  0  0  0  0  0
    1.8730   -3.0109    1.2573 H   0  0  0  0  0  0  0  0  0  0  0  0
    4.2970   -2.7204    1.3844 H   0  0  0  0  0  0  0  0  0  0  0  0
   -0.7628    0.6605    0.3006 H   0  0  0  0  0  0  0  0  0  0  0  0
   -0.6073   -0.0050   -1.3556 H   0  0  0  0  0  0  0  0  0  0  0  0
   -0.1738   -2.2794   -0.3512 H   0  0  0  0  0  0  0  0  0  0  0  0
    5.9942   -1.3163    1.0825 H   0  0  0  0  0  0  0  0  0  0  0  0
    3.9080    1.5250   -1.8253 H   0  0  0  0  0  0  0  0  0  0  0  0
    5.2305    1.4459   -0.6686 H   0  0  0  0  0  0  0  0  0  0  0  0
    0.0895   -1.0918    2.1739 H   0  0  0  0  0  0  0  0  0  0  0  0
    2.7050    2.6079   -0.0914 H   0  0  0  0  0  0  0  0  0  0  0  0
   -4.9357   -0.9782    0.1008 H   0  0  0  0  0  0  0  0  0  0  0  0
   -4.6228   -0.7749   -1.6250 H   0  0  0  0  0  0  0  0  0  0  0  0
   -5.4711    0.4874   -0.7264 H   0  0  0  0  0  0  0  0  0  0  0  0
   -2.9407    1.0265   -2.4180 H   0  0  0  0  0  0  0  0  0  0  0  0
   -2.1077    2.0424   -1.2236 H   0  0  0  0  0  0  0  0  0  0  0  0
   -3.8417    2.2168   -1.4780 H   0  0  0  0  0  0  0  0  0  0  0  0
   -3.6801    0.3884    1.8220 H   0  0  0  0  0  0  0  0  0  0  0  0
   -4.2301    1.8692    1.0307 H   0  0  0  0  0  0  0  0  0  0  0  0
   -2.5140    1.6219    1.3301 H   0  0  0  0  0  0  0  0  0  0  0  0
    2.2052   -0.8526   -1.5185 H   0  0  0  0  0  0  0  0  0  0  0  0
   -0.8887    0.2944   -0.3508 H   0  0  0  0  0  0  0  0  0  0  0  0
    0.7581   -0.6149    2.5367 H   0  0  0  0  0  0  0  0  0  0  0  0
    2.3563    1.1781    3.0008 H   0  0  0  0  0  0  0  0  0  0  0  0
   -1.7045   -2.4989    0.1750 H   0  0  0  0  0  0  0  0  0  0  0  0
   -1.2304   -1.3947    1.4574 H   0  0  0  0  0  0  0  0  0  0  0  0
    0.4953   -2.2623   -0.9217 H   0  0  0  0  0  0  0  0  0  0  0  0
    4.1432    2.3109    2.2260 H   0  0  0  0  0  0  0  0  0  0  0  0
    5.1060    0.6931   -1.1509 H   0  0  0  0  0  0  0  0  0  0  0  0
    3.8005    0.6680   -2.3422 H   0  0  0  0  0  0  0  0  0  0  0  0
    1.0583   -2.8710    1.7539 H   0  0  0  0  0  0  0  0  0  0  0  0
    4.1869    2.8135   -0.5717 H   0  0  0  0  0  0  0  0  0  0  0  0
   -2.4731    1.9165   -1.1802 H   0  0  0  0  0  0  0  0  0  0  0  0
   -4.1900    1.5084   -1.1512 H   0  0  0  0  0  0  0  0  0  0  0  0
   -3.1065    0.6672   -2.2681 H   0  0  0  0  0  0  0  0  0  0  0  0
   -3.8816   -1.6090   -1.3082 H   0  0  0  0  0  0  0  0  0  0  0  0
   -3.8746   -1.8643    0.4482 H   0  0  0  0  0  0  0  0  0  0  0  0
   -4.9790   -0.6926   -0.2611 H   0  0  0  0  0  0  0  0  0  0  0  0
   -4.0084    1.1483    1.3153 H   0  0  0  0  0  0  0  0  0  0  0  0
   -2.9413   -0.0750    2.0152 H   0  0  0  0  0  0  0  0  0  0  0  0
   -2.2613    1.4284    1.3528 H   0  0  0  0  0  0  0  0  0  0  0  0
    2.4074   -1.6271    1.4985 H   0  0  0  0  0  0  0  0  0  0  0  0
   -3.2373   -0.4836    0.5329 H   0  0  0  0  0  0  0  0  0  0  0  0
    2.1882    1.1559   -0.1386 H   0  0  0  0  0  0  0  0  0  0  0  0
   -1.0778    1.5610    1.3144 H   0  0  0  0  0  0  0  0  0  0  0  0
    0.6107   -0.5535   -1.7161 H   0  0  0  0  0  0  0  0  0  0  0  0
   -0.5932    1.6245   -1.0433 H   0  0  0  0  0  0  0  0  0  0  0  0
 10  3  1  0
 11  4  1  0
 12  1  1  0
 10 13  1  0
 14 12  1  0
 15  7  1  0
 16  7  1  0
 17  7  1  0
  6  8  1  0
  2  1  2  0
  3  2  1  0
  4  1  1  0
  5  9  1  0
  6  3  2  0
  7  5  1  0
  8  4  2  0
  9 10  1  0
 27 20  1  0
 28 21  1  0
 29 18  1  0
 27 30  1  0
 31 29  1  0
 32 24  1  0
 33 24  1  0
 34 24  1  0
 23 25  1  0
 19 18  2  0
 20 19  1  0
 21 18  1  0
 22 26  1  0
 23 20  2  0
 24 22  1  0
 25 21  2  0
 26 27  1  0
 41 36  2  0
 42 39  1  0
 43 40  1  0
 41 35  1  0
 43 44  1  0
 42 43  1  0
 44 37  1  0
 41 42  1  0
 44 38  2  0
  2 45  1  0
  5 46  1  0
  6 47  1  0
  8 48  1  0
  9 49  1  0
  9 50  1  0
 10 51  1  6
 11 52  1  0
 12 53  1  0
 12 54  1  0
 13 55  1  0
 14 56  1  0
 15 57  1  0
 15 58  1  0
 15 59  1  0
 16 60  1  0
 16 61  1  0
 16 62  1  0
 17 63  1  0
 17 64  1  0
 17 65  1  0
 19 66  1  0
 22 67  1  0
 23 68  1  0
 25 69  1  0
 26 70  1  0
 26 71  1  0
 27 72  1  6
 28 73  1  0
 29 74  1  0
 29 75  1  0
 30 76  1  0
 31 77  1  0
 32 78  1  0
 32 79  1  0
 32 80  1  0
 33 81  1  0
 33 82  1  0
 33 83  1  0
 34 84  1  0
 34 85  1  0
 34 86  1  0
 35 87  1  0
 37 88  1  0
 39 89  1  0
 40 90  1  0
 42 91  1  6
 43 92  1  6
M  END
$$$$
