
     RDKit          3D

 92 91  0  0  0  0  0  0  0  0999 V2000
   -3.4436    0.2344    0.7516 C   0  0  0  0  0  0  0  0  0  0  0  0
   -2.0728   -0.0904    0.8075 C   0  0  0  0  0  0  0  0  0  0  0  0
   -1.4215   -0.7348   -0.2570 C   0  0  0  0  0  0  0  0  0  0  0  0
   -4.1607   -0.1479   -0.3874 C   0  0  0  0  0  0  0  0  0  0  0  0
    2.3333   -0.5046   -1.1322 N   0  0  0  0  0  0  0  0  0  0  0  0
   -2.1637   -1.0624   -1.3982 C   0  0  0  0  0  0  0  0  0  0  0  0
    3.2641    0.2341   -0.2672 C   0  0  0  0  0  0  0  0  0  0  0  0
   -3.5256   -0.7727   -1.4596 C   0  0  0  0  0  0  0  0  0  0  0  0
    0.9107   -0.1290   -1.0827 C   0  0  0  0  0  0  0  0  0  0  0  0
    0.0585   -1.0488   -0.1691 C   0  0  2  0  0  0  0  0  0  0  0  0
   -5.5023    0.0569   -0.5390 O   0  0  0  0  0  0  0  0  0  0  0  0
   -4.0779    0.9364    1.9239 C   0  0  0  0  0  0  0  0  0  0  0  0
    0.2942   -2.4215   -0.5115 O   0  0  0  0  0  0  0  0  0  0  0  0
   -3.2152    1.9329    2.4623 O   0  0  0  0  0  0  0  0  0  0  0  0
    2.8606    0.2206    1.2143 C   0  0  0  0  0  0  0  0  0  0  0  0
    4.6318   -0.4641   -0.4047 C   0  0  0  0  0  0  0  0  0  0  0  0
    3.4164    1.6850   -0.7559 C   0  0  0  0  0  0  0  0  0  0  0  0
    3.5906   -0.0985    0.5037 C   0  0  0  0  0  0  0  0  0  0  0  0
    2.3660   -0.2102   -0.1760 C   0  0  0  0  0  0  0  0  0  0  0  0
    1.4545    0.8589   -0.2273 C   0  0  0  0  0  0  0  0  0  0  0  0
    3.8747    1.1054    1.1591 C   0  0  0  0  0  0  0  0  0  0  0  0
   -2.2427    0.0594   -0.7594 N   0  0  0  0  0  0  0  0  0  0  0  0
    1.7776    2.0509    0.4375 C   0  0  0  0  0  0  0  0  0  0  0  0
   -3.3796   -0.5029   -0.0019 C   0  0  0  0  0  0  0  0  0  0  0  0
    2.9825    2.1721    1.1293 C   0  0  0  0  0  0  0  0  0  0  0  0
   -0.9997    0.2645    0.0132 C   0  0  0  0  0  0  0  0  0  0  0  0
    0.1270    0.7327   -0.9422 C   0  0  2  0  0  0  0  0  0  0  0  0
    5.0388    1.2957    1.8513 O   0  0  0  0  0  0  0  0  0  0  0  0
    4.5100   -1.2867    0.5603 C   0  0  0  0  0  0  0  0  0  0  0  0
    0.2248   -0.1973   -2.0287 O   0  0  0  0  0  0  0  0  0  0  0  0
    5.8693   -0.8524    0.5279 O   0  0  0  0  0  0  0  0  0  0  0  0
   -3.8121    0.4128    1.1551 C   0  0  0  0  0  0  0  0  0  0  0  0
   -4.5469   -0.6097   -1.0029 C   0  0  0  0  0  0  0  0  0  0  0  0
   -3.0708   -1.9124    0.5292 C   0  0  0  0  0  0  0  0  0  0  0  0
   -1.5113    1.2030   -1.5730 O   0  0  0  0  0  0  0  0  0  0  0  0
   -2.7785    0.5279    0.1265 O   0  0  0  0  0  0  0  0  0  0  0  0
    2.1247    0.5934    1.2701 O   0  0  0  0  0  0  0  0  0  0  0  0
    0.2442    1.7519    0.9483 O   0  0  0  0  0  0  0  0  0  0  0  0
   -0.9346   -1.6172    0.7000 O   0  0  0  0  0  0  0  0  0  0  0  0
    1.5660   -1.3779   -0.2973 O   0  0  0  0  0  0  0  0  0  0  0  0
   -1.7753    0.3626   -0.5476 C   0  0  0  0  0  0  0  0  0  0  0  0
   -0.7485   -0.7634   -0.4332 C   0  0  1  0  0  0  0  0  0  0  0  0
    0.6893   -0.2418   -0.4487 C   0  0  1  0  0  0  0  0  0  0  0  0
    0.9369    0.7966    0.6478 C   0  0  0  0  0  0  0  0  0  0  0  0
   -1.5048    0.1725    1.7011 H   0  0  0  0  0  0  0  0  0  0  0  0
    2.3847   -1.5116   -0.9472 H   0  0  0  0  0  0  0  0  0  0  0  0
   -1.6851   -1.5528   -2.2444 H   0  0  0  0  0  0  0  0  0  0  0  0
   -4.0972   -1.0438   -2.3437 H   0  0  0  0  0  0  0  0  0  0  0  0
    0.7580    0.9230   -0.8200 H   0  0  0  0  0  0  0  0  0  0  0  0
    0.5483   -0.2373   -2.1126 H   0  0  0  0  0  0  0  0  0  0  0  0
    0.3828   -0.9438    0.8708 H   0  0  0  0  0  0  0  0  0  0  0  0
   -5.9238    0.1550    0.3278 H   0  0  0  0  0  0  0  0  0  0  0  0
   -5.0023    1.4460    1.6392 H   0  0  0  0  0  0  0  0  0  0  0  0
   -4.3099    0.2124    2.7111 H   0  0  0  0  0  0  0  0  0  0  0  0
   -0.4931   -2.9224   -0.2360 H   0  0  0  0  0  0  0  0  0  0  0  0
   -2.8869    2.4559    1.7093 H   0  0  0  0  0  0  0  0  0  0  0  0
    3.6330    0.6908    1.8340 H   0  0  0  0  0  0  0  0  0  0  0  0
    2.7267   -0.8032    1.5817 H   0  0  0  0  0  0  0  0  0  0  0  0
    1.9313    0.7728    1.3894 H   0  0  0  0  0  0  0  0  0  0  0  0
    5.3980    0.0478    0.1892 H   0  0  0  0  0  0  0  0  0  0  0  0
    4.9751   -0.4725   -1.4462 H   0  0  0  0  0  0  0  0  0  0  0  0
    4.5885   -1.5036   -0.0582 H   0  0  0  0  0  0  0  0  0  0  0  0
    3.6877    1.7214   -1.8175 H   0  0  0  0  0  0  0  0  0  0  0  0
    2.4973    2.2651   -0.6251 H   0  0  0  0  0  0  0  0  0  0  0  0
    4.2053    2.2040   -0.1992 H   0  0  0  0  0  0  0  0  0  0  0  0
    2.1125   -1.1425   -0.6804 H   0  0  0  0  0  0  0  0  0  0  0  0
   -2.5271    0.9574   -1.1577 H   0  0  0  0  0  0  0  0  0  0  0  0
    1.0931    2.8960    0.4220 H   0  0  0  0  0  0  0  0  0  0  0  0
    3.2294    3.0974    1.6425 H   0  0  0  0  0  0  0  0  0  0  0  0
   -0.6906   -0.6805    0.4724 H   0  0  0  0  0  0  0  0  0  0  0  0
   -1.1429    1.0064    0.8061 H   0  0  0  0  0  0  0  0  0  0  0  0
   -0.1372    1.6997   -1.3881 H   0  0  0  0  0  0  0  0  0  0  0  0
    5.6198    0.5281    1.6635 H   0  0  0  0  0  0  0  0  0  0  0  0
    4.3461   -1.8372    1.4920 H   0  0  0  0  0  0  0  0  0  0  0  0
    4.3512   -1.9676   -0.2823 H   0  0  0  0  0  0  0  0  0  0  0  0
   -0.6955   -0.5041   -2.1624 H   0  0  0  0  0  0  0  0  0  0  0  0
    6.0170   -0.5187   -0.3774 H   0  0  0  0  0  0  0  0  0  0  0  0
   -4.0090    1.4327    0.8045 H   0  0  0  0  0  0  0  0  0  0  0  0
   -4.7319    0.0428    1.6232 H   0  0  0  0  0  0  0  0  0  0  0  0
   -3.0511    0.4666    1.9409 H   0  0  0  0  0  0  0  0  0  0  0  0
   -4.8282    0.3731   -1.3992 H   0  0  0  0  0  0  0  0  0  0  0  0
   -5.4373   -1.0373   -0.5275 H   0  0  0  0  0  0  0  0  0  0  0  0
   -4.2877   -1.2519   -1.8531 H   0  0  0  0  0  0  0  0  0  0  0  0
   -2.7010   -2.5662   -0.2692 H   0  0  0  0  0  0  0  0  0  0  0  0
   -2.3223   -1.8967    1.3284 H   0  0  0  0  0  0  0  0  0  0  0  0
   -3.9713   -2.3796    0.9448 H   0  0  0  0  0  0  0  0  0  0  0  0
   -2.2356    1.8634   -1.5053 H   0  0  0  0  0  0  0  0  0  0  0  0
    2.1563    1.3052    1.9468 H   0  0  0  0  0  0  0  0  0  0  0  0
   -0.1569   -2.2096    0.7079 H   0  0  0  0  0  0  0  0  0  0  0  0
    2.3904   -1.0181    0.0906 H   0  0  0  0  0  0  0  0  0  0  0  0
   -0.9029   -1.4106   -1.3053 H   0  0  0  0  0  0  0  0  0  0  0  0
    0.9356    0.2346   -1.4039 H   0  0  0  0  0  0  0  0  0  0  0  0
 10  3  1  0
 11  4  1  0
 12  1  1  0
 10 13  1  0
 14 12  1  0
 15  7  1  0
 16  7  1  0
 17  7  1  0
  6  8  1  0
  2  1  2  0
  3  2  1  0
  4  1  1  0
  5  9  1  0
  6  3  2  0
  7  5  1  0
  8  4  2  0
  9 10  1  0
 27 20  1  0
 28 21  1  0
 29 18  1  0
 27 30  1  0
 31 29  1  0
 32 24  1  0
 33 24  1  0
 34 24  1  0
 23 25  1  0
 19 18  2  0
 20 19  1  0
 21 18  1  0
 22 26  1  0
 23 20  2  0
 24 22  1  0
 25 21  2  0
 26 27  1  0
 41 36  2  0
 42 39  1  0
 43 40  1  0
 41 35  1  0
 43 44  1  0
 42 43  1  0
 44 37  1  0
 41 42  1  0
 44 38  2  0
  2 45  1  0
  5 46  1  0
  6 47  1  0
  8 48  1  0
  9 49  1  0
  9 50  1  0
 10 51  1  1
 11 52  1  0
 12 53  1  0
 12 54  1  0
 13 55  1  0
 14 56  1  0
 15 57  1  0
 15 58  1  0
 15 59  1  0
 16 60  1  0
 16 61  1  0
 16 62  1  0
 17 63  1  0
 17 64  1  0
 17 65  1  0
 19 66  1  0
 22 67  1  0
 23 68  1  0
 25 69  1  0
 26 70  1  0
 26 71  1  0
 27 72  1  6
 28 73  1  0
 29 74  1  0
 29 75  1  0
 30 76  1  0
 31 77  1  0
 32 78  1  0
 32 79  1  0
 32 80  1  0
 33 81  1  0
 33 82  1  0
 33 83  1  0
 34 84  1  0
 34 85  1  0
 34 86  1  0
 35 87  1  0
 37 88  1  0
 39 89  1  0
 40 90  1  0
 42 91  1  6
 43 92  1  6
M  END
$$$$
