
     RDKit          3D

 92 91  0  0  0  0  0  0  0  0999 V2000
    3.4910   -0.0394    0.6019 C   0  0  0  0  0  0  0  0  0  0  0  0
    2.0865   -0.0164    0.6538 C   0  0  0  0  0  0  0  0  0  0  0  0
    1.3078   -0.6682   -0.3198 C   0  0  0  0  0  0  0  0  0  0  0  0
    4.1028   -0.7632   -0.4292 C   0  0  0  0  0  0  0  0  0  0  0  0
   -2.0895    0.9810   -0.9337 N   0  0  0  0  0  0  0  0  0  0  0  0
    1.9578   -1.3771   -1.3402 C   0  0  0  0  0  0  0  0  0  0  0  0
   -3.3164    0.3997   -0.3521 C   0  0  0  0  0  0  0  0  0  0  0  0
    3.3497   -1.4287   -1.3899 C   0  0  0  0  0  0  0  0  0  0  0  0
   -0.8032    0.7792   -0.2385 C   0  0  0  0  0  0  0  0  0  0  0  0
   -0.2096   -0.6526   -0.2561 C   0  0  2  0  0  0  0  0  0  0  0  0
    5.4621   -0.8535   -0.5401 O   0  0  0  0  0  0  0  0  0  0  0  0
    4.2777    0.6394    1.6891 C   0  0  0  0  0  0  0  0  0  0  0  0
   -0.5832   -1.3629    0.9298 O   0  0  0  0  0  0  0  0  0  0  0  0
    5.4831    1.1831    1.1495 O   0  0  0  0  0  0  0  0  0  0  0  0
   -3.4562   -1.0903   -0.6975 C   0  0  0  0  0  0  0  0  0  0  0  0
   -3.4468    0.6135    1.1637 C   0  0  0  0  0  0  0  0  0  0  0  0
   -4.4916    1.1378   -1.0357 C   0  0  0  0  0  0  0  0  0  0  0  0
    3.8106    0.3471   -0.3384 C   0  0  0  0  0  0  0  0  0  0  0  0
    2.5801    0.7854    0.1792 C   0  0  0  0  0  0  0  0  0  0  0  0
    1.3766    0.5854   -0.5167 C   0  0  0  0  0  0  0  0  0  0  0  0
    3.8120   -0.3189   -1.5694 C   0  0  0  0  0  0  0  0  0  0  0  0
   -2.2043    0.5744    0.8810 N   0  0  0  0  0  0  0  0  0  0  0  0
    1.4210   -0.0630   -1.7577 C   0  0  0  0  0  0  0  0  0  0  0  0
   -3.4288   -0.2420    0.8083 C   0  0  0  0  0  0  0  0  0  0  0  0
    2.6307   -0.5224   -2.2808 C   0  0  0  0  0  0  0  0  0  0  0  0
   -1.0057    0.0083    0.2386 C   0  0  0  0  0  0  0  0  0  0  0  0
    0.0739    1.1059    0.0551 C   0  0  2  0  0  0  0  0  0  0  0  0
    5.0002   -0.7659   -2.0763 O   0  0  0  0  0  0  0  0  0  0  0  0
    5.1102    0.5606    0.4020 C   0  0  0  0  0  0  0  0  0  0  0  0
   -0.4349    2.1250   -0.8167 O   0  0  0  0  0  0  0  0  0  0  0  0
    4.9518    1.4060    1.5361 O   0  0  0  0  0  0  0  0  0  0  0  0
   -4.0400   -0.1842   -0.6016 C   0  0  0  0  0  0  0  0  0  0  0  0
   -4.4232    0.3937    1.7992 C   0  0  0  0  0  0  0  0  0  0  0  0
   -3.1966   -1.7035    1.2242 C   0  0  0  0  0  0  0  0  0  0  0  0
    2.0400    0.2621   -1.1274 O   0  0  0  0  0  0  0  0  0  0  0  0
    0.7038   -1.2238   -2.1163 O   0  0  0  0  0  0  0  0  0  0  0  0
   -0.8604    1.6214   -0.9805 O   0  0  0  0  0  0  0  0  0  0  0  0
   -2.2897    1.2435    0.6885 O   0  0  0  0  0  0  0  0  0  0  0  0
   -0.7011   -1.7112    0.2651 O   0  0  0  0  0  0  0  0  0  0  0  0
   -0.2973    0.2279    2.3245 O   0  0  0  0  0  0  0  0  0  0  0  0
    1.0235   -0.6186   -1.1042 C   0  0  0  0  0  0  0  0  0  0  0  0
    0.4246   -0.8267    0.2825 C   0  0  1  0  0  0  0  0  0  0  0  0
    0.0333    0.4903    0.9493 C   0  0  1  0  0  0  0  0  0  0  0  0
   -1.1561    1.1334    0.2417 C   0  0  0  0  0  0  0  0  0  0  0  0
    1.5854    0.5074    1.4688 H   0  0  0  0  0  0  0  0  0  0  0  0
   -2.2232    1.9891   -1.0243 H   0  0  0  0  0  0  0  0  0  0  0  0
    1.3840   -1.9025   -2.1012 H   0  0  0  0  0  0  0  0  0  0  0  0
    3.8500   -1.9894   -2.1749 H   0  0  0  0  0  0  0  0  0  0  0  0
   -0.1026    1.4414   -0.7650 H   0  0  0  0  0  0  0  0  0  0  0  0
   -0.8612    1.1639    0.7861 H   0  0  0  0  0  0  0  0  0  0  0  0
   -0.6089   -1.2050   -1.1148 H   0  0  0  0  0  0  0  0  0  0  0  0
    5.8467   -0.2023    0.0828 H   0  0  0  0  0  0  0  0  0  0  0  0
    4.5443   -0.0905    2.4641 H   0  0  0  0  0  0  0  0  0  0  0  0
    3.7128    1.4598    2.1510 H   0  0  0  0  0  0  0  0  0  0  0  0
   -0.0830   -2.1960    0.9113 H   0  0  0  0  0  0  0  0  0  0  0  0
    5.2242    2.0008    0.6847 H   0  0  0  0  0  0  0  0  0  0  0  0
   -3.3041   -1.2734   -1.7662 H   0  0  0  0  0  0  0  0  0  0  0  0
   -2.7576   -1.7191   -0.1465 H   0  0  0  0  0  0  0  0  0  0  0  0
   -4.4588   -1.4549   -0.4519 H   0  0  0  0  0  0  0  0  0  0  0  0
   -2.7135    0.0330    1.7282 H   0  0  0  0  0  0  0  0  0  0  0  0
   -3.3255    1.6690    1.4284 H   0  0  0  0  0  0  0  0  0  0  0  0
   -4.4377    0.3022    1.5175 H   0  0  0  0  0  0  0  0  0  0  0  0
   -5.4595    0.7273   -0.7164 H   0  0  0  0  0  0  0  0  0  0  0  0
   -4.4911    2.2076   -0.7838 H   0  0  0  0  0  0  0  0  0  0  0  0
   -4.4428    1.0503   -2.1293 H   0  0  0  0  0  0  0  0  0  0  0  0
    2.5674    1.2993    1.1396 H   0  0  0  0  0  0  0  0  0  0  0  0
   -2.3735    1.4891    0.4497 H   0  0  0  0  0  0  0  0  0  0  0  0
    0.5084   -0.2054   -2.3340 H   0  0  0  0  0  0  0  0  0  0  0  0
    2.6306   -1.0194   -3.2453 H   0  0  0  0  0  0  0  0  0  0  0  0
   -1.2636   -0.3991   -0.7447 H   0  0  0  0  0  0  0  0  0  0  0  0
   -0.6012   -0.8025    0.8572 H   0  0  0  0  0  0  0  0  0  0  0  0
    0.2636    1.5814    1.0240 H   0  0  0  0  0  0  0  0  0  0  0  0
    4.8174   -1.2679   -2.8886 H   0  0  0  0  0  0  0  0  0  0  0  0
    5.8408    1.0391   -0.2614 H   0  0  0  0  0  0  0  0  0  0  0  0
    5.5029   -0.4011    0.7443 H   0  0  0  0  0  0  0  0  0  0  0  0
    0.3324    2.6589   -1.0855 H   0  0  0  0  0  0  0  0  0  0  0  0
    5.8396    1.5200    1.9162 H   0  0  0  0  0  0  0  0  0  0  0  0
   -4.9995   -0.7120   -0.6316 H   0  0  0  0  0  0  0  0  0  0  0  0
   -4.2319    0.8510   -0.9098 H   0  0  0  0  0  0  0  0  0  0  0  0
   -3.3946   -0.6457   -1.3564 H   0  0  0  0  0  0  0  0  0  0  0  0
   -4.6287    1.4406    1.5451 H   0  0  0  0  0  0  0  0  0  0  0  0
   -4.0322    0.3683    2.8244 H   0  0  0  0  0  0  0  0  0  0  0  0
   -5.3834   -0.1384    1.7899 H   0  0  0  0  0  0  0  0  0  0  0  0
   -2.5627   -2.2367    0.5075 H   0  0  0  0  0  0  0  0  0  0  0  0
   -4.1462   -2.2481    1.2839 H   0  0  0  0  0  0  0  0  0  0  0  0
   -2.7192   -1.7625    2.2093 H   0  0  0  0  0  0  0  0  0  0  0  0
    2.3258    0.2878   -2.0654 H   0  0  0  0  0  0  0  0  0  0  0  0
   -1.7142    1.9892   -1.2951 H   0  0  0  0  0  0  0  0  0  0  0  0
   -0.4226   -2.5141   -0.2103 H   0  0  0  0  0  0  0  0  0  0  0  0
   -1.1525   -0.2494    2.2996 H   0  0  0  0  0  0  0  0  0  0  0  0
    1.1889   -1.3273    0.8893 H   0  0  0  0  0  0  0  0  0  0  0  0
    0.8541    1.2154    0.9586 H   0  0  0  0  0  0  0  0  0  0  0  0
 10  3  1  0
 11  4  1  0
 12  1  1  0
 10 13  1  0
 14 12  1  0
 15  7  1  0
 16  7  1  0
 17  7  1  0
  6  8  1  0
  2  1  2  0
  3  2  1  0
  4  1  1  0
  5  9  1  0
  6  3  2  0
  7  5  1  0
  8  4  2  0
  9 10  1  0
 27 20  1  0
 28 21  1  0
 29 18  1  0
 27 30  1  0
 31 29  1  0
 32 24  1  0
 33 24  1  0
 34 24  1  0
 23 25  1  0
 19 18  2  0
 20 19  1  0
 21 18  1  0
 22 26  1  0
 23 20  2  0
 24 22  1  0
 25 21  2  0
 26 27  1  0
 41 36  2  0
 42 39  1  0
 43 40  1  0
 41 35  1  0
 43 44  1  0
 42 43  1  0
 44 37  1  0
 41 42  1  0
 44 38  2  0
  2 45  1  0
  5 46  1  0
  6 47  1  0
  8 48  1  0
  9 49  1  0
  9 50  1  0
 10 51  1  6
 11 52  1  0
 12 53  1  0
 12 54  1  0
 13 55  1  0
 14 56  1  0
 15 57  1  0
 15 58  1  0
 15 59  1  0
 16 60  1  0
 16 61  1  0
 16 62  1  0
 17 63  1  0
 17 64  1  0
 17 65  1  0
 19 66  1  0
 22 67  1  0
 23 68  1  0
 25 69  1  0
 26 70  1  0
 26 71  1  0
 27 72  1  1
 28 73  1  0
 29 74  1  0
 29 75  1  0
 30 76  1  0
 31 77  1  0
 32 78  1  0
 32 79  1  0
 32 80  1  0
 33 81  1  0
 33 82  1  0
 33 83  1  0
 34 84  1  0
 34 85  1  0
 34 86  1  0
 35 87  1  0
 37 88  1  0
 39 89  1  0
 40 90  1  0
 42 91  1  1
 43 92  1  1
M  END
$$$$
