
     RDKit          3D

 65 66  0  0  0  0  0  0  0  0999 V2000
    0.6906    0.0000    0.0000 Cl  0  0  0  0  0  0  0  0  0  0  0  0
    3.5589    0.1870    0.1512 C   0  0  0  0  0  0  0  0  0  0  0  0
    3.7571   -0.9405   -0.6138 C   0  0  0  0  0  0  0  0  0  0  0  0
    2.8186   -1.9684   -0.5515 C   0  0  0  0  0  0  0  0  0  0  0  0
    2.4480    0.2587    0.9450 C   0  0  0  0  0  0  0  0  0  0  0  0
    1.4880   -0.7215    1.0477 C   0  0  0  0  0  0  0  0  0  0  0  0
    5.2774    3.4755    0.8372 C   0  0  0  0  0  0  0  0  0  0  0  0
    1.7100   -1.8608    0.2606 C   0  0  0  0  0  0  0  0  0  0  0  0
    4.4760    1.2015    0.0996 C   0  0  0  0  0  0  0  0  0  0  0  0
    2.9472   -3.1288   -1.2933 C   0  0  0  0  0  0  0  0  0  0  0  0
    4.2843    2.3519    0.8762 C   0  0  0  0  0  0  0  0  0  0  0  0
    4.0494   -3.2391   -2.1082 C   0  0  0  0  0  0  0  0  0  0  0  0
    2.2742    1.3985    1.7037 C   0  0  0  0  0  0  0  0  0  0  0  0
    4.8365   -1.1064   -1.4442 C   0  0  0  0  0  0  0  0  0  0  0  0
    5.0164   -2.2605   -2.2172 C   0  0  0  0  0  0  0  0  0  0  0  0
    0.3352   -0.5757    1.9161 C   0  0  1  0  0  0  0  0  0  0  0  0
   -0.7797    0.1411    1.1165 C   0  0  0  0  0  0  0  0  0  0  0  0
    3.1716    2.4450    1.6833 C   0  0  0  0  0  0  0  0  0  0  0  0
    4.6147    4.6649    0.6653 F   0  0  0  0  0  0  0  0  0  0  0  0
    6.1761    3.2721   -0.1817 F   0  0  0  0  0  0  0  0  0  0  0  0
    5.9969    3.4845    2.0237 F   0  0  0  0  0  0  0  0  0  0  0  0
    1.7532   -4.4035   -1.1957 Cl  0  0  0  0  0  0  0  0  0  0  0  0
   -1.1332   -0.6838   -0.0728 C   0  0  0  0  0  0  0  0  0  0  0  0
   -2.1652   -0.1940   -0.8515 N   0  0  0  0  0  0  0  0  0  0  0  0
    6.4164   -2.4271   -3.2663 Cl  0  0  0  0  0  0  0  0  0  0  0  0
   -0.1308   -1.8949    2.1541 O   0  0  0  0  0  0  0  0  0  0  0  0
   -2.0956    0.9172   -1.6351 C   0  0  0  0  0  0  0  0  0  0  0  0
   -3.2848   -1.0803   -0.9281 C   0  0  0  0  0  0  0  0  0  0  0  0
   -2.0341    2.2969   -1.0805 C   0  0  0  0  0  0  0  0  0  0  0  0
   -3.9544   -1.1606    0.4367 C   0  0  0  0  0  0  0  0  0  0  0  0
   -3.2079    2.6381   -0.1954 C   0  0  0  0  0  0  0  0  0  0  0  0
   -5.1388   -2.0845    0.3892 C   0  0  0  0  0  0  0  0  0  0  0  0
   -3.0034    4.0721    0.2952 C   0  0  0  0  0  0  0  0  0  0  0  0
   -4.7831   -3.4886   -0.0097 C   0  0  0  0  0  0  0  0  0  0  0  0
   -0.6906    0.0000    0.0000 H   0  0  0  0  0  0  0  0  0  0  0  0
    0.9827   -2.6676    0.3010 H   0  0  0  0  0  0  0  0  0  0  0  0
    5.3692    1.2095   -0.5002 H   0  0  0  0  0  0  0  0  0  0  0  0
    4.1874   -4.1384   -2.7099 H   0  0  0  0  0  0  0  0  0  0  0  0
    1.4107    1.5391    2.3674 H   0  0  0  0  0  0  0  0  0  0  0  0
    5.6074   -0.3647   -1.5527 H   0  0  0  0  0  0  0  0  0  0  0  0
    0.4619   -0.1699    2.9091 H   0  0  0  0  0  0  0  0  0  0  0  0
   -1.6296    0.3771    1.7638 H   0  0  0  0  0  0  0  0  0  0  0  0
   -0.3602    1.1162    0.7540 H   0  0  0  0  0  0  0  0  0  0  0  0
    3.0623    3.3455    2.2629 H   0  0  0  0  0  0  0  0  0  0  0  0
   -0.2022   -0.8131   -0.7456 H   0  0  0  0  0  0  0  0  0  0  0  0
   -1.3111   -1.7651    0.2167 H   0  0  0  0  0  0  0  0  0  0  0  0
    0.6433   -2.4518    2.4360 H   0  0  0  0  0  0  0  0  0  0  0  0
   -2.9441    0.8620   -2.4208 H   0  0  0  0  0  0  0  0  0  0  0  0
   -1.1962    0.8824   -2.3730 H   0  0  0  0  0  0  0  0  0  0  0  0
   -4.0233   -0.7400   -1.6916 H   0  0  0  0  0  0  0  0  0  0  0  0
   -2.9813   -2.1393   -1.1667 H   0  0  0  0  0  0  0  0  0  0  0  0
   -2.2090    2.9895   -1.9979 H   0  0  0  0  0  0  0  0  0  0  0  0
   -1.1176    2.6388   -0.6388 H   0  0  0  0  0  0  0  0  0  0  0  0
   -4.2352   -0.1783    0.8261 H   0  0  0  0  0  0  0  0  0  0  0  0
   -3.2050   -1.5961    1.1385 H   0  0  0  0  0  0  0  0  0  0  0  0
   -4.1689    2.5998   -0.7391 H   0  0  0  0  0  0  0  0  0  0  0  0
   -3.2378    2.0015    0.6969 H   0  0  0  0  0  0  0  0  0  0  0  0
   -5.6700   -2.1262    1.3576 H   0  0  0  0  0  0  0  0  0  0  0  0
   -5.8436   -1.6933   -0.3759 H   0  0  0  0  0  0  0  0  0  0  0  0
   -2.1814    4.1574    1.0257 H   0  0  0  0  0  0  0  0  0  0  0  0
   -3.9672    4.4491    0.7287 H   0  0  0  0  0  0  0  0  0  0  0  0
   -2.7366    4.7650   -0.5469 H   0  0  0  0  0  0  0  0  0  0  0  0
   -5.5249   -4.1898    0.4557 H   0  0  0  0  0  0  0  0  0  0  0  0
   -4.8945   -3.6757   -1.1096 H   0  0  0  0  0  0  0  0  0  0  0  0
   -3.7805   -3.8099    0.3728 H   0  0  0  0  0  0  0  0  0  0  0  0
  3  2  2  0
  4  3  1  0
  5  2  1  0
  6  5  2  0
  7 11  1  0
  8  6  1  0
  9  2  1  0
 10  4  1  0
 11  9  2  0
 12 15  1  0
 13  5  1  0
 14  3  1  0
 15 14  2  0
 16  6  1  0
 17 16  1  0
 18 11  1  0
 19  7  1  0
 20  7  1  0
 21  7  1  0
 22 10  1  0
 23 17  1  0
 24 23  1  0
 25 15  1  0
 26 16  1  0
 27 24  1  0
 28 24  1  0
 29 27  1  0
 30 28  1  0
 31 29  1  0
 32 30  1  0
 33 31  1  0
 34 32  1  0
 18 13  2  0
  8  4  2  0
 10 12  2  0
  1 35  1  0
  8 36  1  0
  9 37  1  0
 12 38  1  0
 13 39  1  0
 14 40  1  0
 16 41  1  1
 17 42  1  0
 17 43  1  0
 18 44  1  0
 23 45  1  0
 23 46  1  0
 26 47  1  0
 27 48  1  0
 27 49  1  0
 28 50  1  0
 28 51  1  0
 29 52  1  0
 29 53  1  0
 30 54  1  0
 30 55  1  0
 31 56  1  0
 31 57  1  0
 32 58  1  0
 32 59  1  0
 33 60  1  0
 33 61  1  0
 33 62  1  0
 34 63  1  0
 34 64  1  0
 34 65  1  0
M  END
$$$$
