
     RDKit          3D

 65 66  0  0  0  0  0  0  0  0999 V2000
    0.6859    0.0000    0.0000 Cl  0  0  0  0  0  0  0  0  0  0  0  0
    4.2913   -0.1941    0.1126 C   0  0  0  0  0  0  0  0  0  0  0  0
    4.5594    1.1291    0.3766 C   0  0  0  0  0  0  0  0  0  0  0  0
    3.5270    2.0244    0.5752 C   0  0  0  0  0  0  0  0  0  0  0  0
    2.9691   -0.6215    0.0466 C   0  0  0  0  0  0  0  0  0  0  0  0
    1.9098    0.2713    0.2460 C   0  0  0  0  0  0  0  0  0  0  0  0
    6.1518   -3.4281   -0.5722 C   0  0  0  0  0  0  0  0  0  0  0  0
    2.2235    1.5891    0.5085 C   0  0  0  0  0  0  0  0  0  0  0  0
    5.3291   -1.0929   -0.0870 C   0  0  0  0  0  0  0  0  0  0  0  0
    3.7564    3.3476    0.8390 C   0  0  0  0  0  0  0  0  0  0  0  0
    5.0627   -2.4256   -0.3553 C   0  0  0  0  0  0  0  0  0  0  0  0
    5.0431    3.8316    0.9144 C   0  0  0  0  0  0  0  0  0  0  0  0
    2.7352   -1.9532   -0.2237 C   0  0  0  0  0  0  0  0  0  0  0  0
    5.8331    1.6118    0.4523 C   0  0  0  0  0  0  0  0  0  0  0  0
    6.0973    2.9540    0.7190 C   0  0  0  0  0  0  0  0  0  0  0  0
    0.4932   -0.2190    0.1889 C   0  0  1  0  0  0  0  0  0  0  0  0
   -0.0241   -0.2919   -1.1953 C   0  0  0  0  0  0  0  0  0  0  0  0
    3.7765   -2.8667   -0.4263 C   0  0  0  0  0  0  0  0  0  0  0  0
    7.3891   -2.8680   -0.3667 F   0  0  0  0  0  0  0  0  0  0  0  0
    6.0996   -3.9548   -1.8659 F   0  0  0  0  0  0  0  0  0  0  0  0
    5.9317   -4.5056    0.2881 F   0  0  0  0  0  0  0  0  0  0  0  0
    2.4428    4.5050    1.0951 Cl  0  0  0  0  0  0  0  0  0  0  0  0
   -1.4215   -0.7696   -1.3865 C   0  0  0  0  0  0  0  0  0  0  0  0
   -2.4508   -0.0483   -0.7619 N   0  0  0  0  0  0  0  0  0  0  0  0
    7.7698    3.5279    0.8028 Cl  0  0  0  0  0  0  0  0  0  0  0  0
    0.2779   -1.3045    1.0031 O   0  0  0  0  0  0  0  0  0  0  0  0
   -2.6198    1.2482   -1.2506 C   0  0  0  0  0  0  0  0  0  0  0  0
   -3.4249   -0.7641   -0.1107 C   0  0  0  0  0  0  0  0  0  0  0  0
   -3.8811    1.9925   -0.9904 C   0  0  0  0  0  0  0  0  0  0  0  0
   -2.8969   -1.5419    1.1063 C   0  0  0  0  0  0  0  0  0  0  0  0
   -5.0881    1.4324   -1.6685 C   0  0  0  0  0  0  0  0  0  0  0  0
   -4.0265   -2.2622    1.7626 C   0  0  0  0  0  0  0  0  0  0  0  0
   -6.3599    2.2087   -1.3499 C   0  0  0  0  0  0  0  0  0  0  0  0
   -5.1154   -1.3904    2.2942 C   0  0  0  0  0  0  0  0  0  0  0  0
   -0.6859    0.0000    0.0000 H   0  0  0  0  0  0  0  0  0  0  0  0
    1.4053    2.3077    0.6679 H   0  0  0  0  0  0  0  0  0  0  0  0
    6.3669   -0.8230   -0.0485 H   0  0  0  0  0  0  0  0  0  0  0  0
    5.2681    4.8896    1.1248 H   0  0  0  0  0  0  0  0  0  0  0  0
    1.7527   -2.3625   -0.3025 H   0  0  0  0  0  0  0  0  0  0  0  0
    6.7089    0.9983    0.3122 H   0  0  0  0  0  0  0  0  0  0  0  0
   -0.0972    0.6164    0.6900 H   0  0  0  0  0  0  0  0  0  0  0  0
    0.0721    0.7242   -1.6926 H   0  0  0  0  0  0  0  0  0  0  0  0
    0.6175   -0.9349   -1.8717 H   0  0  0  0  0  0  0  0  0  0  0  0
    3.5662   -3.9208   -0.6390 H   0  0  0  0  0  0  0  0  0  0  0  0
   -1.5875   -0.7680   -2.5147 H   0  0  0  0  0  0  0  0  0  0  0  0
   -1.4793   -1.8579   -1.1279 H   0  0  0  0  0  0  0  0  0  0  0  0
    0.3677   -1.0364    1.9408 H   0  0  0  0  0  0  0  0  0  0  0  0
   -1.7167    1.8851   -0.9847 H   0  0  0  0  0  0  0  0  0  0  0  0
   -2.5025    1.1880   -2.3941 H   0  0  0  0  0  0  0  0  0  0  0  0
   -4.1597   -0.0306    0.3513 H   0  0  0  0  0  0  0  0  0  0  0  0
   -4.0227   -1.4907   -0.6775 H   0  0  0  0  0  0  0  0  0  0  0  0
   -3.7152    3.0379   -1.4053 H   0  0  0  0  0  0  0  0  0  0  0  0
   -4.0543    2.1827    0.0949 H   0  0  0  0  0  0  0  0  0  0  0  0
   -2.2085   -2.3157    0.7022 H   0  0  0  0  0  0  0  0  0  0  0  0
   -2.3388   -0.9073    1.7913 H   0  0  0  0  0  0  0  0  0  0  0  0
   -5.2231    0.3672   -1.5291 H   0  0  0  0  0  0  0  0  0  0  0  0
   -4.9757    1.5359   -2.8094 H   0  0  0  0  0  0  0  0  0  0  0  0
   -4.4921   -2.9959    1.0672 H   0  0  0  0  0  0  0  0  0  0  0  0
   -3.6531   -2.8733    2.6134 H   0  0  0  0  0  0  0  0  0  0  0  0
   -6.4756    3.0865   -2.0170 H   0  0  0  0  0  0  0  0  0  0  0  0
   -6.3126    2.4994   -0.2821 H   0  0  0  0  0  0  0  0  0  0  0  0
   -7.2094    1.4891   -1.4313 H   0  0  0  0  0  0  0  0  0  0  0  0
   -4.7183   -0.6529    3.0473 H   0  0  0  0  0  0  0  0  0  0  0  0
   -5.7625   -2.0667    2.9274 H   0  0  0  0  0  0  0  0  0  0  0  0
   -5.7813   -0.9426    1.5571 H   0  0  0  0  0  0  0  0  0  0  0  0
  3  2  2  0
  4  3  1  0
  5  2  1  0
  6  5  2  0
  7 11  1  0
  8  6  1  0
  9  2  1  0
 10  4  1  0
 11  9  2  0
 12 15  1  0
 13  5  1  0
 14  3  1  0
 15 14  2  0
 16  6  1  0
 17 16  1  0
 18 11  1  0
 19  7  1  0
 20  7  1  0
 21  7  1  0
 22 10  1  0
 23 17  1  0
 24 23  1  0
 25 15  1  0
 26 16  1  0
 27 24  1  0
 28 24  1  0
 29 27  1  0
 30 28  1  0
 31 29  1  0
 32 30  1  0
 33 31  1  0
 34 32  1  0
 18 13  2  0
  8  4  2  0
 10 12  2  0
  1 35  1  0
  8 36  1  0
  9 37  1  0
 12 38  1  0
 13 39  1  0
 14 40  1  0
 16 41  1  1
 17 42  1  0
 17 43  1  0
 18 44  1  0
 23 45  1  0
 23 46  1  0
 26 47  1  0
 27 48  1  0
 27 49  1  0
 28 50  1  0
 28 51  1  0
 29 52  1  0
 29 53  1  0
 30 54  1  0
 30 55  1  0
 31 56  1  0
 31 57  1  0
 32 58  1  0
 32 59  1  0
 33 60  1  0
 33 61  1  0
 33 62  1  0
 34 63  1  0
 34 64  1  0
 34 65  1  0
M  END
$$$$
