
     RDKit          3D

 65 66  0  0  0  0  0  0  0  0999 V2000
    0.6875    0.0000    0.0000 Cl  0  0  0  0  0  0  0  0  0  0  0  0
    3.8607   -0.1802   -0.1637 C   0  0  0  0  0  0  0  0  0  0  0  0
    3.8761    0.9464    0.5988 C   0  0  0  0  0  0  0  0  0  0  0  0
    2.7591    1.2355    1.3519 C   0  0  0  0  0  0  0  0  0  0  0  0
    2.7591   -1.0311   -0.1979 C   0  0  0  0  0  0  0  0  0  0  0  0
    1.6072   -0.7564    0.5619 C   0  0  0  0  0  0  0  0  0  0  0  0
    6.2465   -1.9390   -2.5403 C   0  0  0  0  0  0  0  0  0  0  0  0
    1.6703    0.3920    1.3161 C   0  0  0  0  0  0  0  0  0  0  0  0
    5.0036   -0.4598   -0.9194 C   0  0  0  0  0  0  0  0  0  0  0  0
    2.7030    2.3782    2.1615 C   0  0  0  0  0  0  0  0  0  0  0  0
    5.0473   -1.6119   -1.7254 C   0  0  0  0  0  0  0  0  0  0  0  0
    3.7577    3.2567    2.2381 C   0  0  0  0  0  0  0  0  0  0  0  0
    2.8287   -2.1545   -0.9973 C   0  0  0  0  0  0  0  0  0  0  0  0
    4.9277    1.8323    0.6825 C   0  0  0  0  0  0  0  0  0  0  0  0
    4.8752    2.9756    1.4908 C   0  0  0  0  0  0  0  0  0  0  0  0
    0.4592   -1.6765    0.5115 C   0  0  1  0  0  0  0  0  0  0  0  0
   -0.4762   -1.4868   -0.6251 C   0  0  0  0  0  0  0  0  0  0  0  0
    3.9622   -2.4537   -1.7623 C   0  0  0  0  0  0  0  0  0  0  0  0
    7.0670   -0.8079   -2.5720 F   0  0  0  0  0  0  0  0  0  0  0  0
    6.9924   -2.9463   -1.9651 F   0  0  0  0  0  0  0  0  0  0  0  0
    5.9155   -2.2854   -3.8323 F   0  0  0  0  0  0  0  0  0  0  0  0
    1.2840    2.7458    3.1217 Cl  0  0  0  0  0  0  0  0  0  0  0  0
   -1.2311   -0.2458   -0.7932 C   0  0  0  0  0  0  0  0  0  0  0  0
   -2.2302    0.1839    0.0852 N   0  0  0  0  0  0  0  0  0  0  0  0
    6.2491    4.0618    1.5522 Cl  0  0  0  0  0  0  0  0  0  0  0  0
    0.7739   -3.0146    0.7581 O   0  0  0  0  0  0  0  0  0  0  0  0
   -3.4126   -0.6234    0.1122 C   0  0  0  0  0  0  0  0  0  0  0  0
   -1.9390    0.9700    1.2065 C   0  0  0  0  0  0  0  0  0  0  0  0
   -4.1366   -0.5067   -1.2051 C   0  0  0  0  0  0  0  0  0  0  0  0
   -3.1338    1.5546    1.9320 C   0  0  0  0  0  0  0  0  0  0  0  0
   -5.4128   -1.3366   -1.2057 C   0  0  0  0  0  0  0  0  0  0  0  0
   -3.9838    2.4586    1.1072 C   0  0  0  0  0  0  0  0  0  0  0  0
   -5.0932   -2.7786   -0.9764 C   0  0  0  0  0  0  0  0  0  0  0  0
   -3.1933    3.6532    0.5852 C   0  0  0  0  0  0  0  0  0  0  0  0
   -0.6875    0.0000    0.0000 H   0  0  0  0  0  0  0  0  0  0  0  0
    0.8353    0.6692    1.9349 H   0  0  0  0  0  0  0  0  0  0  0  0
    5.8694    0.1376   -0.9408 H   0  0  0  0  0  0  0  0  0  0  0  0
    3.7623    4.1499    2.8470 H   0  0  0  0  0  0  0  0  0  0  0  0
    2.0298   -2.8675   -1.0851 H   0  0  0  0  0  0  0  0  0  0  0  0
    5.8165    1.6867    0.1397 H   0  0  0  0  0  0  0  0  0  0  0  0
   -0.1522   -1.4184    1.4369 H   0  0  0  0  0  0  0  0  0  0  0  0
   -1.1137   -2.4159   -0.7885 H   0  0  0  0  0  0  0  0  0  0  0  0
    0.1837   -1.5375   -1.5625 H   0  0  0  0  0  0  0  0  0  0  0  0
    4.0048   -3.3438   -2.3904 H   0  0  0  0  0  0  0  0  0  0  0  0
   -1.6647   -0.2677   -1.8432 H   0  0  0  0  0  0  0  0  0  0  0  0
   -0.4524    0.5871   -0.9101 H   0  0  0  0  0  0  0  0  0  0  0  0
    0.1030   -3.5506    0.2769 H   0  0  0  0  0  0  0  0  0  0  0  0
   -4.0895   -0.2702    0.8997 H   0  0  0  0  0  0  0  0  0  0  0  0
   -3.2118   -1.6885    0.3444 H   0  0  0  0  0  0  0  0  0  0  0  0
   -1.4148    0.3959    2.0299 H   0  0  0  0  0  0  0  0  0  0  0  0
   -1.2639    1.7984    0.9452 H   0  0  0  0  0  0  0  0  0  0  0  0
   -3.5219   -0.9490   -2.0454 H   0  0  0  0  0  0  0  0  0  0  0  0
   -4.3832    0.4964   -1.5251 H   0  0  0  0  0  0  0  0  0  0  0  0
   -3.7246    0.8212    2.4733 H   0  0  0  0  0  0  0  0  0  0  0  0
   -2.6728    2.2330    2.7266 H   0  0  0  0  0  0  0  0  0  0  0  0
   -6.1666   -0.9291   -0.5210 H   0  0  0  0  0  0  0  0  0  0  0  0
   -5.8202   -1.2566   -2.2414 H   0  0  0  0  0  0  0  0  0  0  0  0
   -4.5540    1.9703    0.3114 H   0  0  0  0  0  0  0  0  0  0  0  0
   -4.7596    2.8782    1.8058 H   0  0  0  0  0  0  0  0  0  0  0  0
   -5.8785   -3.4509   -1.3936 H   0  0  0  0  0  0  0  0  0  0  0  0
   -4.9724   -3.0078    0.1033 H   0  0  0  0  0  0  0  0  0  0  0  0
   -4.1426   -3.0188   -1.4864 H   0  0  0  0  0  0  0  0  0  0  0  0
   -3.9051    4.4753    0.3303 H   0  0  0  0  0  0  0  0  0  0  0  0
   -2.4935    4.0072    1.3587 H   0  0  0  0  0  0  0  0  0  0  0  0
   -2.6295    3.3166   -0.3046 H   0  0  0  0  0  0  0  0  0  0  0  0
  3  2  2  0
  4  3  1  0
  5  2  1  0
  6  5  2  0
  7 11  1  0
  8  6  1  0
  9  2  1  0
 10  4  1  0
 11  9  2  0
 12 15  1  0
 13  5  1  0
 14  3  1  0
 15 14  2  0
 16  6  1  0
 17 16  1  0
 18 11  1  0
 19  7  1  0
 20  7  1  0
 21  7  1  0
 22 10  1  0
 23 17  1  0
 24 23  1  0
 25 15  1  0
 26 16  1  0
 27 24  1  0
 28 24  1  0
 29 27  1  0
 30 28  1  0
 31 29  1  0
 32 30  1  0
 33 31  1  0
 34 32  1  0
 18 13  2  0
  8  4  2  0
 10 12  2  0
  1 35  1  0
  8 36  1  0
  9 37  1  0
 12 38  1  0
 13 39  1  0
 14 40  1  0
 16 41  1  1
 17 42  1  0
 17 43  1  0
 18 44  1  0
 23 45  1  0
 23 46  1  0
 26 47  1  0
 27 48  1  0
 27 49  1  0
 28 50  1  0
 28 51  1  0
 29 52  1  0
 29 53  1  0
 30 54  1  0
 30 55  1  0
 31 56  1  0
 31 57  1  0
 32 58  1  0
 32 59  1  0
 33 60  1  0
 33 61  1  0
 33 62  1  0
 34 63  1  0
 34 64  1  0
 34 65  1  0
M  END
$$$$
