
     RDKit          3D

 65 66  0  0  0  0  0  0  0  0999 V2000
    0.6904    0.0000    0.0000 Cl  0  0  0  0  0  0  0  0  0  0  0  0
    4.2618    0.5387   -0.0882 C   0  0  0  0  0  0  0  0  0  0  0  0
    4.3551    1.9060   -0.1335 C   0  0  0  0  0  0  0  0  0  0  0  0
    3.2387    2.7023   -0.0007 C   0  0  0  0  0  0  0  0  0  0  0  0
    3.0085   -0.0449    0.0967 C   0  0  0  0  0  0  0  0  0  0  0  0
    1.8622    0.7176    0.2348 C   0  0  0  0  0  0  0  0  0  0  0  0
    6.4703   -2.4986   -0.3354 C   0  0  0  0  0  0  0  0  0  0  0  0
    2.0229    2.0833    0.1798 C   0  0  0  0  0  0  0  0  0  0  0  0
    5.3845   -0.2456   -0.2278 C   0  0  0  0  0  0  0  0  0  0  0  0
    3.2947    4.0857   -0.0408 C   0  0  0  0  0  0  0  0  0  0  0  0
    5.2688   -1.6268   -0.1849 C   0  0  0  0  0  0  0  0  0  0  0  0
    4.5003    4.6899   -0.2180 C   0  0  0  0  0  0  0  0  0  0  0  0
    2.9373   -1.4389    0.1337 C   0  0  0  0  0  0  0  0  0  0  0  0
    5.5578    2.5377   -0.3111 C   0  0  0  0  0  0  0  0  0  0  0  0
    5.6372    3.9334   -0.3541 C   0  0  0  0  0  0  0  0  0  0  0  0
    0.5101    0.0730    0.4508 C   0  0  1  0  0  0  0  0  0  0  0  0
   -0.1056   -0.3213   -0.8398 C   0  0  0  0  0  0  0  0  0  0  0  0
    4.0655   -2.2304   -0.0066 C   0  0  0  0  0  0  0  0  0  0  0  0
    7.1453   -2.0636   -1.4774 F   0  0  0  0  0  0  0  0  0  0  0  0
    7.3029   -2.2567    0.7273 F   0  0  0  0  0  0  0  0  0  0  0  0
    6.1180   -3.8234   -0.4447 F   0  0  0  0  0  0  0  0  0  0  0  0
    1.8762    5.0949    0.1277 Cl  0  0  0  0  0  0  0  0  0  0  0  0
   -1.3923   -0.9959   -0.7827 C   0  0  0  0  0  0  0  0  0  0  0  0
   -2.5704   -0.4355   -0.2516 N   0  0  0  0  0  0  0  0  0  0  0  0
    7.1918    4.7352   -0.5819 Cl  0  0  0  0  0  0  0  0  0  0  0  0
    0.4944   -0.8379    1.4626 O   0  0  0  0  0  0  0  0  0  0  0  0
   -2.7484   -0.2722    1.1291 C   0  0  0  0  0  0  0  0  0  0  0  0
   -3.7381   -1.1248   -0.8682 C   0  0  0  0  0  0  0  0  0  0  0  0
   -3.9802    0.5416    1.4868 C   0  0  0  0  0  0  0  0  0  0  0  0
   -3.8416   -2.5479   -0.4327 C   0  0  0  0  0  0  0  0  0  0  0  0
   -3.9329    1.9555    1.0047 C   0  0  0  0  0  0  0  0  0  0  0  0
   -5.0266   -3.2936   -1.0367 C   0  0  0  0  0  0  0  0  0  0  0  0
   -3.8055    2.1868   -0.4522 C   0  0  0  0  0  0  0  0  0  0  0  0
   -6.3400   -2.6820   -0.6870 C   0  0  0  0  0  0  0  0  0  0  0  0
   -0.6904    0.0000    0.0000 H   0  0  0  0  0  0  0  0  0  0  0  0
    1.1521    2.7129    0.2827 H   0  0  0  0  0  0  0  0  0  0  0  0
    6.3826    0.1335   -0.3726 H   0  0  0  0  0  0  0  0  0  0  0  0
    4.6178    5.7627   -0.2583 H   0  0  0  0  0  0  0  0  0  0  0  0
    2.0083   -1.9672    0.2676 H   0  0  0  0  0  0  0  0  0  0  0  0
    6.4994    2.0284   -0.4252 H   0  0  0  0  0  0  0  0  0  0  0  0
   -0.0934    0.9745    0.8046 H   0  0  0  0  0  0  0  0  0  0  0  0
    0.6809   -0.9406   -1.4048 H   0  0  0  0  0  0  0  0  0  0  0  0
   -0.1369    0.5959   -1.5449 H   0  0  0  0  0  0  0  0  0  0  0  0
    4.0038   -3.3211    0.0226 H   0  0  0  0  0  0  0  0  0  0  0  0
   -1.6564   -1.2545   -1.8763 H   0  0  0  0  0  0  0  0  0  0  0  0
   -1.2806   -2.0752   -0.3780 H   0  0  0  0  0  0  0  0  0  0  0  0
    0.3272   -0.4599    2.3594 H   0  0  0  0  0  0  0  0  0  0  0  0
   -2.7764   -1.2601    1.6951 H   0  0  0  0  0  0  0  0  0  0  0  0
   -1.9254    0.2623    1.6038 H   0  0  0  0  0  0  0  0  0  0  0  0
   -4.6122   -0.5053   -0.6997 H   0  0  0  0  0  0  0  0  0  0  0  0
   -3.5136   -1.1212   -1.9546 H   0  0  0  0  0  0  0  0  0  0  0  0
   -4.0684    0.6194    2.6142 H   0  0  0  0  0  0  0  0  0  0  0  0
   -4.9059    0.0347    1.1689 H   0  0  0  0  0  0  0  0  0  0  0  0
   -3.8731   -2.7185    0.6462 H   0  0  0  0  0  0  0  0  0  0  0  0
   -2.9494   -3.1220   -0.8180 H   0  0  0  0  0  0  0  0  0  0  0  0
   -4.7621    2.5722    1.4258 H   0  0  0  0  0  0  0  0  0  0  0  0
   -3.0011    2.4015    1.4771 H   0  0  0  0  0  0  0  0  0  0  0  0
   -4.8917   -3.3730   -2.1469 H   0  0  0  0  0  0  0  0  0  0  0  0
   -5.0206   -4.3436   -0.6673 H   0  0  0  0  0  0  0  0  0  0  0  0
   -3.7809    3.3091   -0.5916 H   0  0  0  0  0  0  0  0  0  0  0  0
   -4.6504    1.8336   -1.0706 H   0  0  0  0  0  0  0  0  0  0  0  0
   -2.8317    1.8221   -0.8463 H   0  0  0  0  0  0  0  0  0  0  0  0
   -7.0488   -3.4579   -0.2745 H   0  0  0  0  0  0  0  0  0  0  0  0
   -6.1609   -2.0006    0.1755 H   0  0  0  0  0  0  0  0  0  0  0  0
   -6.7549   -2.1839   -1.5738 H   0  0  0  0  0  0  0  0  0  0  0  0
  3  2  2  0
  4  3  1  0
  5  2  1  0
  6  5  2  0
  7 11  1  0
  8  6  1  0
  9  2  1  0
 10  4  1  0
 11  9  2  0
 12 15  1  0
 13  5  1  0
 14  3  1  0
 15 14  2  0
 16  6  1  0
 17 16  1  0
 18 11  1  0
 19  7  1  0
 20  7  1  0
 21  7  1  0
 22 10  1  0
 23 17  1  0
 24 23  1  0
 25 15  1  0
 26 16  1  0
 27 24  1  0
 28 24  1  0
 29 27  1  0
 30 28  1  0
 31 29  1  0
 32 30  1  0
 33 31  1  0
 34 32  1  0
 18 13  2  0
  8  4  2  0
 10 12  2  0
  1 35  1  0
  8 36  1  0
  9 37  1  0
 12 38  1  0
 13 39  1  0
 14 40  1  0
 16 41  1  1
 17 42  1  0
 17 43  1  0
 18 44  1  0
 23 45  1  0
 23 46  1  0
 26 47  1  0
 27 48  1  0
 27 49  1  0
 28 50  1  0
 28 51  1  0
 29 52  1  0
 29 53  1  0
 30 54  1  0
 30 55  1  0
 31 56  1  0
 31 57  1  0
 32 58  1  0
 32 59  1  0
 33 60  1  0
 33 61  1  0
 33 62  1  0
 34 63  1  0
 34 64  1  0
 34 65  1  0
M  END
$$$$
