
     RDKit          3D

 84 92  0  0  0  0  0  0  0  0999 V2000
    5.9296    0.0425    1.3506 C   0  0  0  0  0  0  0  0  0  0  0  0
    5.0917    0.2727    0.2550 C   0  0  0  0  0  0  0  0  0  0  0  0
    5.6499    0.5819   -0.9900 C   0  0  0  0  0  0  0  0  0  0  0  0
    7.0325    0.6514   -1.1279 C   0  0  0  0  0  0  0  0  0  0  0  0
    7.8711    0.4216   -0.0424 C   0  0  0  0  0  0  0  0  0  0  0  0
    7.3169    0.1153    1.2020 C   0  0  0  0  0  0  0  0  0  0  0  0
   -0.4464    6.0452   -0.0656 C   0  0  0  0  0  0  0  0  0  0  0  0
   -0.3929    7.1431   -0.9184 C   0  0  0  0  0  0  0  0  0  0  0  0
   -0.0981    6.9872   -2.2728 C   0  0  0  0  0  0  0  0  0  0  0  0
    0.1436    5.7094   -2.7789 C   0  0  0  0  0  0  0  0  0  0  0  0
    0.0902    4.6013   -1.9325 C   0  0  0  0  0  0  0  0  0  0  0  0
   -0.2050    4.7637   -0.5725 C   0  0  0  0  0  0  0  0  0  0  0  0
    1.5806   -1.1409    0.0819 N   0  0  0  0  0  0  0  0  0  0  0  0
    2.9304   -0.9357    0.0940 C   0  0  0  0  0  0  0  0  0  0  0  0
    3.6212   -2.2032   -0.3247 C   0  0  0  0  0  0  0  0  0  0  0  0
    2.5592   -3.2475   -0.0953 C   0  0  0  0  0  0  0  0  0  0  0  0
    1.2586   -2.4569   -0.0965 C   0  0  0  0  0  0  0  0  0  0  0  0
    1.4916    1.6498    0.4271 N   0  0  0  0  0  0  0  0  0  0  0  0
    1.1009    2.9218    0.7341 C   0  0  0  0  0  0  0  0  0  0  0  0
    2.1464    3.5433    1.3903 C   0  0  0  0  0  0  0  0  0  0  0  0
    3.2403    2.6349    1.3976 C   0  0  0  0  0  0  0  0  0  0  0  0
    2.8165    1.4973    0.7479 C   0  0  0  0  0  0  0  0  0  0  0  0
   -1.8377    1.5253    0.4204 N   0  0  0  0  0  0  0  0  0  0  0  0
   -3.1811    1.2848    0.5642 C   0  0  0  0  0  0  0  0  0  0  0  0
   -3.7976    2.4701    0.8966 C   0  0  0  0  0  0  0  0  0  0  0  0
   -2.7940    3.4723    0.9122 C   0  0  0  0  0  0  0  0  0  0  0  0
   -1.5983    2.8632    0.5776 C   0  0  0  0  0  0  0  0  0  0  0  0
   -1.6227   -1.2428    0.0364 N   0  0  0  0  0  0  0  0  0  0  0  0
   -1.1911   -2.5349   -0.1371 C   0  0  0  0  0  0  0  0  0  0  0  0
   -2.4123   -3.3337   -0.2251 C   0  0  0  0  0  0  0  0  0  0  0  0
   -3.4698   -2.5445   -0.0643 C   0  0  0  0  0  0  0  0  0  0  0  0
   -2.9920   -1.1949    0.1222 C   0  0  0  0  0  0  0  0  0  0  0  0
    0.0542   -3.1116   -0.2034 C   0  0  0  0  0  0  0  0  0  0  0  0
    3.6270    0.1944    0.3900 C   0  0  0  0  0  0  0  0  0  0  0  0
   -0.2436    3.5927    0.3213 C   0  0  0  0  0  0  0  0  0  0  0  0
   -3.8257   -0.1429    0.3495 C   0  0  0  0  0  0  0  0  0  0  0  0
    0.1172   -4.6001   -0.3439 C   0  0  0  0  0  0  0  0  0  0  0  0
    0.1649   -5.4006    0.8054 C   0  0  0  0  0  0  0  0  0  0  0  0
    0.2508   -6.7846    0.6817 C   0  0  0  0  0  0  0  0  0  0  0  0
    0.2827   -7.3903   -0.5705 C   0  0  0  0  0  0  0  0  0  0  0  0
    0.2254   -6.6017   -1.7216 C   0  0  0  0  0  0  0  0  0  0  0  0
    0.1439   -5.2112   -1.6063 C   0  0  0  0  0  0  0  0  0  0  0  0
   -5.2959   -0.2768    0.3905 C   0  0  0  0  0  0  0  0  0  0  0  0
   -6.0286   -0.3309   -0.8027 C   0  0  0  0  0  0  0  0  0  0  0  0
   -7.4133   -0.4666   -0.7536 C   0  0  0  0  0  0  0  0  0  0  0  0
   -8.0825   -0.5347    0.4653 C   0  0  0  0  0  0  0  0  0  0  0  0
   -7.3575   -0.4754    1.6568 C   0  0  0  0  0  0  0  0  0  0  0  0
   -5.9670   -0.3485    1.6182 C   0  0  0  0  0  0  0  0  0  0  0  0
   -8.1513   -0.5488   -1.9026 O   0  0  0  0  0  0  0  0  0  0  0  0
    0.3150   -7.5814    1.7919 O   0  0  0  0  0  0  0  0  0  0  0  0
    7.5985    0.9302   -2.3382 O   0  0  0  0  0  0  0  0  0  0  0  0
   -0.6356    8.3761   -0.3887 O   0  0  0  0  0  0  0  0  0  0  0  0
    5.4860   -0.2053    2.3128 H   0  0  0  0  0  0  0  0  0  0  0  0
    4.9805    0.7584   -1.8273 H   0  0  0  0  0  0  0  0  0  0  0  0
    8.9474    0.4708   -0.1676 H   0  0  0  0  0  0  0  0  0  0  0  0
    7.9574   -0.0681    2.0575 H   0  0  0  0  0  0  0  0  0  0  0  0
   -0.6761    6.1778    0.9868 H   0  0  0  0  0  0  0  0  0  0  0  0
   -0.0583    7.8380   -2.9456 H   0  0  0  0  0  0  0  0  0  0  0  0
    0.3746    5.5663   -3.8296 H   0  0  0  0  0  0  0  0  0  0  0  0
    0.2850    3.6045   -2.3265 H   0  0  0  0  0  0  0  0  0  0  0  0
    3.8862   -2.1544   -1.3884 H   0  0  0  0  0  0  0  0  0  0  0  0
    4.5191   -2.4364    0.2545 H   0  0  0  0  0  0  0  0  0  0  0  0
    2.7070   -3.7166    0.8863 H   0  0  0  0  0  0  0  0  0  0  0  0
    2.6274   -4.0173   -0.8672 H   0  0  0  0  0  0  0  0  0  0  0  0
    0.9516    0.8805    0.0220 H   0  0  0  0  0  0  0  0  0  0  0  0
    2.1414    4.5559    1.7707 H   0  0  0  0  0  0  0  0  0  0  0  0
    4.2285    2.8077    1.7977 H   0  0  0  0  0  0  0  0  0  0  0  0
   -1.1889    0.7701    0.1970 H   0  0  0  0  0  0  0  0  0  0  0  0
   -4.8529    2.6046    1.0800 H   0  0  0  0  0  0  0  0  0  0  0  0
   -2.9397    4.5266    1.1055 H   0  0  0  0  0  0  0  0  0  0  0  0
   -2.4615   -4.3974   -0.3733 H   0  0  0  0  0  0  0  0  0  0  0  0
   -4.4969   -2.8620   -0.0538 H   0  0  0  0  0  0  0  0  0  0  0  0
    0.1412   -4.9051    1.7716 H   0  0  0  0  0  0  0  0  0  0  0  0
    0.3587   -8.4705   -0.6501 H   0  0  0  0  0  0  0  0  0  0  0  0
    0.2539   -7.0588   -2.7049 H   0  0  0  0  0  0  0  0  0  0  0  0
    0.1061   -4.5788   -2.4901 H   0  0  0  0  0  0  0  0  0  0  0  0
   -5.4882   -0.2884   -1.7432 H   0  0  0  0  0  0  0  0  0  0  0  0
   -9.1622   -0.6400    0.4874 H   0  0  0  0  0  0  0  0  0  0  0  0
   -7.8642   -0.5357    2.6155 H   0  0  0  0  0  0  0  0  0  0  0  0
   -5.3881   -0.3136    2.5393 H   0  0  0  0  0  0  0  0  0  0  0  0
   -7.5161   -0.5721   -2.6397 H   0  0  0  0  0  0  0  0  0  0  0  0
    0.2517   -6.9801    2.5580 H   0  0  0  0  0  0  0  0  0  0  0  0
    6.8667    0.9630   -2.9805 H   0  0  0  0  0  0  0  0  0  0  0  0
   -0.5881    9.0261   -1.1082 H   0  0  0  0  0  0  0  0  0  0  0  0
 25 26  2  0
 26 27  1  0
 27 23  1  0
 28 29  1  0
  1  2  2  0
  3  4  2  0
  7  8  2  0
 14 15  1  0
 29 30  1  0
 30 31  2  0
 31 32  1  0
 32 28  2  0
 15 16  1  0
 29 33  2  0
 17 33  1  0
 16 17  1  0
 14 34  2  0
 22 34  1  0
 17 13  2  0
 27 35  2  0
 19 35  1  0
 18 19  1  0
 24 36  2  0
 32 36  1  0
  8  9  1  0
  4  5  1  0
 37 38  2  0
  9 10  2  0
 38 39  1  0
  2  3  1  0
 39 40  2  0
 10 11  1  0
 40 41  1  0
 19 20  2  0
 41 42  2  0
 42 37  1  0
 33 37  1  0
 20 21  1  0
 21 22  2  0
 43 44  2  0
 22 18  1  0
 44 45  1  0
 23 24  1  0
 45 46  2  0
  5  6  2  0
 46 47  1  0
 11 12  2  0
 47 48  2  0
 48 43  1  0
 36 43  1  0
 12  7  1  0
 45 49  1  0
 13 14  1  0
 39 50  1  0
 35 12  1  0
 34  2  1  0
  6  1  1  0
  4 51  1  0
 24 25  1  0
  8 52  1  0
  1 53  1  0
  3 54  1  0
  5 55  1  0
  6 56  1  0
  7 57  1  0
  9 58  1  0
 10 59  1  0
 11 60  1  0
 15 61  1  0
 15 62  1  0
 16 63  1  0
 16 64  1  0
 18 65  1  0
 20 66  1  0
 21 67  1  0
 23 68  1  0
 25 69  1  0
 26 70  1  0
 30 71  1  0
 31 72  1  0
 38 73  1  0
 40 74  1  0
 41 75  1  0
 42 76  1  0
 44 77  1  0
 46 78  1  0
 47 79  1  0
 48 80  1  0
 49 81  1  0
 50 82  1  0
 51 83  1  0
 52 84  1  0
M  END
$$$$
