
     RDKit          3D

 84 92  0  0  0  0  0  0  0  0999 V2000
   -5.2448    2.9928   -0.4225 C   0  0  0  0  0  0  0  0  0  0  0  0
   -4.4097    2.7063    0.6645 C   0  0  0  0  0  0  0  0  0  0  0  0
   -4.7297    3.2011    1.9341 C   0  0  0  0  0  0  0  0  0  0  0  0
   -5.8750    3.9730    2.1020 C   0  0  0  0  0  0  0  0  0  0  0  0
   -6.7082    4.2589    1.0252 C   0  0  0  0  0  0  0  0  0  0  0  0
   -6.3918    3.7686   -0.2432 C   0  0  0  0  0  0  0  0  0  0  0  0
   -1.8536   -4.1283   -2.2707 C   0  0  0  0  0  0  0  0  0  0  0  0
   -2.3240   -5.0695   -3.1822 C   0  0  0  0  0  0  0  0  0  0  0  0
   -3.3159   -5.9814   -2.8243 C   0  0  0  0  0  0  0  0  0  0  0  0
   -3.8424   -5.9518   -1.5335 C   0  0  0  0  0  0  0  0  0  0  0  0
   -3.3756   -5.0106   -0.6131 C   0  0  0  0  0  0  0  0  0  0  0  0
   -2.3833   -4.0894   -0.9763 C   0  0  0  0  0  0  0  0  0  0  0  0
   -0.7588    1.8113    0.1563 N   0  0  0  0  0  0  0  0  0  0  0  0
   -1.9711    2.4234    0.2956 C   0  0  0  0  0  0  0  0  0  0  0  0
   -1.7775    3.9144    0.2523 C   0  0  0  0  0  0  0  0  0  0  0  0
   -0.3978    4.0557   -0.3372 C   0  0  0  0  0  0  0  0  0  0  0  0
    0.2486    2.7032   -0.0843 C   0  0  0  0  0  0  0  0  0  0  0  0
   -2.2870   -0.5434    0.2874 N   0  0  0  0  0  0  0  0  0  0  0  0
   -2.7303   -1.8389    0.3539 C   0  0  0  0  0  0  0  0  0  0  0  0
   -4.0582   -1.8122    0.7305 C   0  0  0  0  0  0  0  0  0  0  0  0
   -4.4442   -0.4500    0.8481 C   0  0  0  0  0  0  0  0  0  0  0  0
   -3.3362    0.3062    0.5412 C   0  0  0  0  0  0  0  0  0  0  0  0
    0.5486   -2.2946    0.4163 N   0  0  0  0  0  0  0  0  0  0  0  0
    1.7332   -2.8144    0.8746 C   0  0  0  0  0  0  0  0  0  0  0  0
    1.4863   -4.0615    1.4006 C   0  0  0  0  0  0  0  0  0  0  0  0
    0.1050   -4.3301    1.1914 C   0  0  0  0  0  0  0  0  0  0  0  0
   -0.4342   -3.2340    0.5481 C   0  0  0  0  0  0  0  0  0  0  0  0
    1.9402    0.1217    0.3620 N   0  0  0  0  0  0  0  0  0  0  0  0
    2.3207    1.4054    0.0676 C   0  0  0  0  0  0  0  0  0  0  0  0
    3.7800    1.3619    0.0054 C   0  0  0  0  0  0  0  0  0  0  0  0
    4.1959    0.1275    0.2717 C   0  0  0  0  0  0  0  0  0  0  0  0
    3.0330   -0.6939    0.5019 C   0  0  0  0  0  0  0  0  0  0  0  0
    1.6167    2.5661   -0.1408 C   0  0  0  0  0  0  0  0  0  0  0  0
   -3.2034    1.8777    0.4851 C   0  0  0  0  0  0  0  0  0  0  0  0
   -1.8898   -3.1080    0.0062 C   0  0  0  0  0  0  0  0  0  0  0  0
    3.1003   -2.0260    0.7700 C   0  0  0  0  0  0  0  0  0  0  0  0
    2.3988    3.7947   -0.4717 C   0  0  0  0  0  0  0  0  0  0  0  0
    2.6300    4.1299   -1.8127 C   0  0  0  0  0  0  0  0  0  0  0  0
    3.3587    5.2734   -2.1231 C   0  0  0  0  0  0  0  0  0  0  0  0
    3.8656    6.0919   -1.1185 C   0  0  0  0  0  0  0  0  0  0  0  0
    3.6425    5.7642    0.2200 C   0  0  0  0  0  0  0  0  0  0  0  0
    2.9113    4.6189    0.5423 C   0  0  0  0  0  0  0  0  0  0  0  0
    4.3680   -2.7796    0.8235 C   0  0  0  0  0  0  0  0  0  0  0  0
    5.1709   -2.7688    1.9703 C   0  0  0  0  0  0  0  0  0  0  0  0
    6.3584   -3.4926    1.9861 C   0  0  0  0  0  0  0  0  0  0  0  0
    6.7614   -4.2329    0.8753 C   0  0  0  0  0  0  0  0  0  0  0  0
    5.9641   -4.2465   -0.2691 C   0  0  0  0  0  0  0  0  0  0  0  0
    4.7721   -3.5224   -0.2938 C   0  0  0  0  0  0  0  0  0  0  0  0
    7.1209   -3.4613    3.1198 O   0  0  0  0  0  0  0  0  0  0  0  0
    3.5939    5.6198   -3.4246 O   0  0  0  0  0  0  0  0  0  0  0  0
   -6.2124    4.4703    3.3288 O   0  0  0  0  0  0  0  0  0  0  0  0
   -1.7871   -5.0767   -4.4375 O   0  0  0  0  0  0  0  0  0  0  0  0
   -4.9837    2.6085   -1.4070 H   0  0  0  0  0  0  0  0  0  0  0  0
   -4.0630    2.9688    2.7604 H   0  0  0  0  0  0  0  0  0  0  0  0
   -7.5958    4.8646    1.1715 H   0  0  0  0  0  0  0  0  0  0  0  0
   -7.0305    3.9894   -1.0932 H   0  0  0  0  0  0  0  0  0  0  0  0
   -1.0796   -3.4206   -2.5616 H   0  0  0  0  0  0  0  0  0  0  0  0
   -3.6838   -6.7172   -3.5302 H   0  0  0  0  0  0  0  0  0  0  0  0
   -4.6109   -6.6593   -1.2374 H   0  0  0  0  0  0  0  0  0  0  0  0
   -3.7799   -4.9950    0.3959 H   0  0  0  0  0  0  0  0  0  0  0  0
   -2.5120    4.4385   -0.3674 H   0  0  0  0  0  0  0  0  0  0  0  0
   -1.8073    4.3320    1.2667 H   0  0  0  0  0  0  0  0  0  0  0  0
    0.1129    4.8993    0.1353 H   0  0  0  0  0  0  0  0  0  0  0  0
   -0.4641    4.2433   -1.4167 H   0  0  0  0  0  0  0  0  0  0  0  0
   -1.3514   -0.1831    0.0859 H   0  0  0  0  0  0  0  0  0  0  0  0
   -4.6948   -2.6708    0.8770 H   0  0  0  0  0  0  0  0  0  0  0  0
   -5.4197   -0.0677    1.1089 H   0  0  0  0  0  0  0  0  0  0  0  0
    0.4895   -1.3372    0.0644 H   0  0  0  0  0  0  0  0  0  0  0  0
    2.2190   -4.7097    1.8587 H   0  0  0  0  0  0  0  0  0  0  0  0
   -0.4264   -5.2329    1.4533 H   0  0  0  0  0  0  0  0  0  0  0  0
    4.4287    2.1900   -0.2139 H   0  0  0  0  0  0  0  0  0  0  0  0
    5.2201   -0.1971    0.2949 H   0  0  0  0  0  0  0  0  0  0  0  0
    2.2260    3.4720   -2.5766 H   0  0  0  0  0  0  0  0  0  0  0  0
    4.4314    6.9792   -1.3749 H   0  0  0  0  0  0  0  0  0  0  0  0
    4.0344    6.3929    1.0123 H   0  0  0  0  0  0  0  0  0  0  0  0
    2.7276    4.3422    1.5781 H   0  0  0  0  0  0  0  0  0  0  0  0
    4.8623   -2.1857    2.8333 H   0  0  0  0  0  0  0  0  0  0  0  0
    7.6834   -4.8010    0.8827 H   0  0  0  0  0  0  0  0  0  0  0  0
    6.2624   -4.8137   -1.1444 H   0  0  0  0  0  0  0  0  0  0  0  0
    4.1449   -3.5193   -1.1834 H   0  0  0  0  0  0  0  0  0  0  0  0
    7.9464   -3.9319    2.9351 H   0  0  0  0  0  0  0  0  0  0  0  0
    3.1578    4.9348   -3.9620 H   0  0  0  0  0  0  0  0  0  0  0  0
   -5.4892    4.2254    3.9332 H   0  0  0  0  0  0  0  0  0  0  0  0
   -2.2373   -5.7581   -4.9579 H   0  0  0  0  0  0  0  0  0  0  0  0
 25 26  2  0
 26 27  1  0
 27 23  1  0
 28 29  1  0
  1  2  2  0
  3  4  2  0
  7  8  2  0
 14 15  1  0
 29 30  1  0
 30 31  2  0
 31 32  1  0
 32 28  2  0
 15 16  1  0
 29 33  2  0
 17 33  1  0
 16 17  1  0
 14 34  2  0
 22 34  1  0
 17 13  2  0
 27 35  2  0
 19 35  1  0
 18 19  1  0
 24 36  2  0
 32 36  1  0
  8  9  1  0
  4  5  1  0
 37 38  2  0
  9 10  2  0
 38 39  1  0
  2  3  1  0
 39 40  2  0
 10 11  1  0
 40 41  1  0
 19 20  2  0
 41 42  2  0
 42 37  1  0
 33 37  1  0
 20 21  1  0
 21 22  2  0
 43 44  2  0
 22 18  1  0
 44 45  1  0
 23 24  1  0
 45 46  2  0
  5  6  2  0
 46 47  1  0
 11 12  2  0
 47 48  2  0
 48 43  1  0
 36 43  1  0
 12  7  1  0
 45 49  1  0
 13 14  1  0
 39 50  1  0
 35 12  1  0
 34  2  1  0
  6  1  1  0
  4 51  1  0
 24 25  1  0
  8 52  1  0
  1 53  1  0
  3 54  1  0
  5 55  1  0
  6 56  1  0
  7 57  1  0
  9 58  1  0
 10 59  1  0
 11 60  1  0
 15 61  1  0
 15 62  1  0
 16 63  1  0
 16 64  1  0
 18 65  1  0
 20 66  1  0
 21 67  1  0
 23 68  1  0
 25 69  1  0
 26 70  1  0
 30 71  1  0
 31 72  1  0
 38 73  1  0
 40 74  1  0
 41 75  1  0
 42 76  1  0
 44 77  1  0
 46 78  1  0
 47 79  1  0
 48 80  1  0
 49 81  1  0
 50 82  1  0
 51 83  1  0
 52 84  1  0
M  END
$$$$
