
     RDKit          3D

 84 92  0  0  0  0  0  0  0  0999 V2000
   -2.9979   -5.1752    0.3446 C   0  0  0  0  0  0  0  0  0  0  0  0
   -2.5058   -4.4254   -0.7350 C   0  0  0  0  0  0  0  0  0  0  0  0
   -2.7538   -4.8564   -2.0420 C   0  0  0  0  0  0  0  0  0  0  0  0
   -3.4896   -6.0165   -2.2535 C   0  0  0  0  0  0  0  0  0  0  0  0
   -3.9806   -6.7634   -1.1801 C   0  0  0  0  0  0  0  0  0  0  0  0
   -3.7339   -6.3400    0.1239 C   0  0  0  0  0  0  0  0  0  0  0  0
    5.2623   -3.0459    0.3649 C   0  0  0  0  0  0  0  0  0  0  0  0
    6.3653   -3.5868    1.0200 C   0  0  0  0  0  0  0  0  0  0  0  0
    6.5555   -3.3834    2.3822 C   0  0  0  0  0  0  0  0  0  0  0  0
    5.6312   -2.6276    3.1040 C   0  0  0  0  0  0  0  0  0  0  0  0
    4.5176   -2.0827    2.4577 C   0  0  0  0  0  0  0  0  0  0  0  0
    4.3269   -2.2930    1.0872 C   0  0  0  0  0  0  0  0  0  0  0  0
   -1.8209   -0.7482   -0.0881 N   0  0  0  0  0  0  0  0  0  0  0  0
   -2.3558   -1.9787   -0.3393 C   0  0  0  0  0  0  0  0  0  0  0  0
   -3.8433   -1.8436   -0.5121 C   0  0  0  0  0  0  0  0  0  0  0  0
   -4.1283   -0.4956    0.0945 C   0  0  0  0  0  0  0  0  0  0  0  0
   -2.7838    0.2130    0.0569 C   0  0  0  0  0  0  0  0  0  0  0  0
    0.6244   -2.1701   -0.0864 N   0  0  0  0  0  0  0  0  0  0  0  0
    1.9291   -2.5810    0.0150 C   0  0  0  0  0  0  0  0  0  0  0  0
    1.9549   -3.9463   -0.2092 C   0  0  0  0  0  0  0  0  0  0  0  0
    0.6251   -4.3769   -0.4337 C   0  0  0  0  0  0  0  0  0  0  0  0
   -0.1749   -3.2616   -0.3379 C   0  0  0  0  0  0  0  0  0  0  0  0
    2.2357    0.7352    0.0897 N   0  0  0  0  0  0  0  0  0  0  0  0
    2.7359    1.9773   -0.2276 C   0  0  0  0  0  0  0  0  0  0  0  0
    4.0431    1.8365   -0.6249 C   0  0  0  0  0  0  0  0  0  0  0  0
    4.3633    0.4598   -0.4874 C   0  0  0  0  0  0  0  0  0  0  0  0
    3.2385   -0.1886   -0.0149 C   0  0  0  0  0  0  0  0  0  0  0  0
   -0.2456    2.0249    0.0344 N   0  0  0  0  0  0  0  0  0  0  0  0
   -1.5758    2.3421    0.1534 C   0  0  0  0  0  0  0  0  0  0  0  0
   -1.6110    3.7997    0.2560 C   0  0  0  0  0  0  0  0  0  0  0  0
   -0.3736    4.2765    0.1617 C   0  0  0  0  0  0  0  0  0  0  0  0
    0.5241    3.1586    0.0001 C   0  0  0  0  0  0  0  0  0  0  0  0
   -2.7218    1.5835    0.1723 C   0  0  0  0  0  0  0  0  0  0  0  0
   -1.7437   -3.1855   -0.4767 C   0  0  0  0  0  0  0  0  0  0  0  0
    3.1682   -1.6970    0.3898 C   0  0  0  0  0  0  0  0  0  0  0  0
    1.8702    3.2998   -0.1397 C   0  0  0  0  0  0  0  0  0  0  0  0
   -4.0276    2.3020    0.2880 C   0  0  0  0  0  0  0  0  0  0  0  0
   -4.6517    2.4794    1.5300 C   0  0  0  0  0  0  0  0  0  0  0  0
   -5.8751    3.1361    1.5975 C   0  0  0  0  0  0  0  0  0  0  0  0
   -6.4888    3.6294    0.4455 C   0  0  0  0  0  0  0  0  0  0  0  0
   -5.8667    3.4692   -0.7919 C   0  0  0  0  0  0  0  0  0  0  0  0
   -4.6445    2.8036   -0.8703 C   0  0  0  0  0  0  0  0  0  0  0  0
    2.5531    4.6093   -0.2049 C   0  0  0  0  0  0  0  0  0  0  0  0
    3.3682    5.0481    0.8444 C   0  0  0  0  0  0  0  0  0  0  0  0
    4.0172    6.2763    0.7494 C   0  0  0  0  0  0  0  0  0  0  0  0
    3.8677    7.0800   -0.3820 C   0  0  0  0  0  0  0  0  0  0  0  0
    3.0582    6.6469   -1.4325 C   0  0  0  0  0  0  0  0  0  0  0  0
    2.4110    5.4128   -1.3452 C   0  0  0  0  0  0  0  0  0  0  0  0
    4.8073    6.6723    1.7918 O   0  0  0  0  0  0  0  0  0  0  0  0
   -6.4669    3.2852    2.8203 O   0  0  0  0  0  0  0  0  0  0  0  0
   -3.7261   -6.4070   -3.5422 O   0  0  0  0  0  0  0  0  0  0  0  0
    7.2897   -4.3337    0.3446 O   0  0  0  0  0  0  0  0  0  0  0  0
   -2.8069   -4.8291    1.3584 H   0  0  0  0  0  0  0  0  0  0  0  0
   -2.3855   -4.2710   -2.8816 H   0  0  0  0  0  0  0  0  0  0  0  0
   -4.5522   -7.6707   -1.3442 H   0  0  0  0  0  0  0  0  0  0  0  0
   -4.1132   -6.9049    0.9702 H   0  0  0  0  0  0  0  0  0  0  0  0
    5.1097   -3.1921   -0.7016 H   0  0  0  0  0  0  0  0  0  0  0  0
    7.4207   -3.8095    2.8790 H   0  0  0  0  0  0  0  0  0  0  0  0
    5.7664   -2.4656    4.1704 H   0  0  0  0  0  0  0  0  0  0  0  0
    3.7915   -1.4948    3.0187 H   0  0  0  0  0  0  0  0  0  0  0  0
   -4.4303   -2.6226   -0.0109 H   0  0  0  0  0  0  0  0  0  0  0  0
   -4.0982   -1.8486   -1.5810 H   0  0  0  0  0  0  0  0  0  0  0  0
   -4.9211   -0.0047   -0.4787 H   0  0  0  0  0  0  0  0  0  0  0  0
   -4.4611   -0.6156    1.1352 H   0  0  0  0  0  0  0  0  0  0  0  0
    0.2226   -1.2360    0.0142 H   0  0  0  0  0  0  0  0  0  0  0  0
    2.8277   -4.5799   -0.1939 H   0  0  0  0  0  0  0  0  0  0  0  0
    0.2874   -5.3870   -0.6224 H   0  0  0  0  0  0  0  0  0  0  0  0
    1.2514    0.6098    0.3349 H   0  0  0  0  0  0  0  0  0  0  0  0
    4.6963    2.6308   -0.9573 H   0  0  0  0  0  0  0  0  0  0  0  0
    5.3209   -0.0001   -0.6824 H   0  0  0  0  0  0  0  0  0  0  0  0
   -2.4911    4.4029    0.3898 H   0  0  0  0  0  0  0  0  0  0  0  0
   -0.0932    5.3131    0.2132 H   0  0  0  0  0  0  0  0  0  0  0  0
   -4.1685    2.0910    2.4199 H   0  0  0  0  0  0  0  0  0  0  0  0
   -7.4406    4.1426    0.4920 H   0  0  0  0  0  0  0  0  0  0  0  0
   -6.3244    3.8529   -1.6968 H   0  0  0  0  0  0  0  0  0  0  0  0
   -4.1420    2.6581   -1.8252 H   0  0  0  0  0  0  0  0  0  0  0  0
    3.4845    4.4285    1.7285 H   0  0  0  0  0  0  0  0  0  0  0  0
    4.3760    8.0360   -0.4641 H   0  0  0  0  0  0  0  0  0  0  0  0
    2.9284    7.2598   -2.3187 H   0  0  0  0  0  0  0  0  0  0  0  0
    1.7752    5.0620   -2.1579 H   0  0  0  0  0  0  0  0  0  0  0  0
    5.1519    7.5565    1.5899 H   0  0  0  0  0  0  0  0  0  0  0  0
   -7.3325    3.6948    2.6811 H   0  0  0  0  0  0  0  0  0  0  0  0
   -4.3750   -7.1258   -3.5139 H   0  0  0  0  0  0  0  0  0  0  0  0
    6.9691   -4.4282   -0.5683 H   0  0  0  0  0  0  0  0  0  0  0  0
 25 26  2  0
 26 27  1  0
 27 23  1  0
 28 29  1  0
  1  2  2  0
  3  4  2  0
  7  8  2  0
 14 15  1  0
 29 30  1  0
 30 31  2  0
 31 32  1  0
 32 28  2  0
 15 16  1  0
 29 33  2  0
 17 33  1  0
 16 17  1  0
 14 34  2  0
 22 34  1  0
 17 13  2  0
 27 35  2  0
 19 35  1  0
 18 19  1  0
 24 36  2  0
 32 36  1  0
  8  9  1  0
  4  5  1  0
 37 38  2  0
  9 10  2  0
 38 39  1  0
  2  3  1  0
 39 40  2  0
 10 11  1  0
 40 41  1  0
 19 20  2  0
 41 42  2  0
 42 37  1  0
 33 37  1  0
 20 21  1  0
 21 22  2  0
 43 44  2  0
 22 18  1  0
 44 45  1  0
 23 24  1  0
 45 46  2  0
  5  6  2  0
 46 47  1  0
 11 12  2  0
 47 48  2  0
 48 43  1  0
 36 43  1  0
 12  7  1  0
 45 49  1  0
 13 14  1  0
 39 50  1  0
 35 12  1  0
 34  2  1  0
  6  1  1  0
  4 51  1  0
 24 25  1  0
  8 52  1  0
  1 53  1  0
  3 54  1  0
  5 55  1  0
  6 56  1  0
  7 57  1  0
  9 58  1  0
 10 59  1  0
 11 60  1  0
 15 61  1  0
 15 62  1  0
 16 63  1  0
 16 64  1  0
 18 65  1  0
 20 66  1  0
 21 67  1  0
 23 68  1  0
 25 69  1  0
 26 70  1  0
 30 71  1  0
 31 72  1  0
 38 73  1  0
 40 74  1  0
 41 75  1  0
 42 76  1  0
 44 77  1  0
 46 78  1  0
 47 79  1  0
 48 80  1  0
 49 81  1  0
 50 82  1  0
 51 83  1  0
 52 84  1  0
M  END
$$$$
