
     RDKit          3D

 69 69  0  0  0  0  0  0  0  0999 V2000
   -0.7766   -0.9404   -0.3743 C   0  0  0  0  0  0  0  0  0  0  0  0
   -3.2079   -0.4709   -0.4090 N   0  0  0  0  0  0  0  0  0  0  0  0
    0.6239   -0.3792   -0.2978 C   0  0  0  0  0  0  0  0  0  0  0  0
   -1.8840    0.1099   -0.1410 C   0  0  1  0  0  0  0  0  0  0  0  0
    1.4477   -0.6660    0.7991 C   0  0  0  0  0  0  0  0  0  0  0  0
    1.1183    0.4402   -1.3221 C   0  0  0  0  0  0  0  0  0  0  0  0
   -1.8804    0.6498    1.2896 C   0  0  0  0  0  0  0  0  0  0  0  0
    2.7392   -0.1413    0.8704 C   0  0  0  0  0  0  0  0  0  0  0  0
    2.4100    0.9637   -1.2489 C   0  0  0  0  0  0  0  0  0  0  0  0
    3.2199    0.6732   -0.1529 C   0  0  0  0  0  0  0  0  0  0  0  0
   -0.8968    0.2657   -0.7430 C   0  0  0  0  0  0  0  0  0  0  0  0
   -1.4846    0.4219    1.6887 N   0  0  0  0  0  0  0  0  0  0  0  0
    0.5907    0.0757   -0.5494 C   0  0  0  0  0  0  0  0  0  0  0  0
   -1.7525   -0.2752    0.4240 C   0  0  1  0  0  0  0  0  0  0  0  0
    1.1612   -1.2021   -0.6300 C   0  0  0  0  0  0  0  0  0  0  0  0
    1.4195    1.1734   -0.2796 C   0  0  0  0  0  0  0  0  0  0  0  0
   -3.2393   -0.1346    0.1004 C   0  0  0  0  0  0  0  0  0  0  0  0
    2.7910    0.9951   -0.0910 C   0  0  0  0  0  0  0  0  0  0  0  0
    2.5328   -1.3781   -0.4409 C   0  0  0  0  0  0  0  0  0  0  0  0
    3.3470   -0.2800   -0.1710 C   0  0  0  0  0  0  0  0  0  0  0  0
    0.7208    0.8948    0.6456 C   0  0  0  0  0  0  0  0  0  0  0  0
    3.0131    1.2235   -0.2323 N   0  0  0  0  0  0  0  0  0  0  0  0
   -0.6490    0.2967    0.4265 C   0  0  0  0  0  0  0  0  0  0  0  0
    1.7657    0.4648   -0.4066 C   0  0  1  0  0  0  0  0  0  0  0  0
   -1.1296   -0.7125    1.2719 C   0  0  0  0  0  0  0  0  0  0  0  0
   -1.4580    0.7405   -0.6288 C   0  0  0  0  0  0  0  0  0  0  0  0
    2.0975   -1.0254   -0.3204 C   0  0  0  0  0  0  0  0  0  0  0  0
   -2.3932   -1.2679    1.0637 C   0  0  0  0  0  0  0  0  0  0  0  0
   -2.7211    0.1840   -0.8352 C   0  0  0  0  0  0  0  0  0  0  0  0
   -3.1882   -0.8200    0.0106 C   0  0  0  0  0  0  0  0  0  0  0  0
   -0.8861   -1.7666    0.3411 H   0  0  0  0  0  0  0  0  0  0  0  0
   -0.8975   -1.3940   -1.3678 H   0  0  0  0  0  0  0  0  0  0  0  0
   -3.2308   -0.8505   -1.3547 H   0  0  0  0  0  0  0  0  0  0  0  0
   -3.3733   -1.2577    0.2179 H   0  0  0  0  0  0  0  0  0  0  0  0
   -1.7483    0.9527   -0.8288 H   0  0  0  0  0  0  0  0  0  0  0  0
    1.0883   -1.2976    1.6083 H   0  0  0  0  0  0  0  0  0  0  0  0
    0.4995    0.6755   -2.1853 H   0  0  0  0  0  0  0  0  0  0  0  0
   -2.7041    1.3565    1.4431 H   0  0  0  0  0  0  0  0  0  0  0  0
   -1.9865   -0.1562    2.0244 H   0  0  0  0  0  0  0  0  0  0  0  0
   -0.9514    1.1865    1.5072 H   0  0  0  0  0  0  0  0  0  0  0  0
    3.3704   -0.3679    1.7257 H   0  0  0  0  0  0  0  0  0  0  0  0
    2.7844    1.5985   -2.0477 H   0  0  0  0  0  0  0  0  0  0  0  0
    4.2254    1.0815   -0.0963 H   0  0  0  0  0  0  0  0  0  0  0  0
   -1.1835   -0.2387   -1.6755 H   0  0  0  0  0  0  0  0  0  0  0  0
   -1.1157    1.3299   -0.9045 H   0  0  0  0  0  0  0  0  0  0  0  0
   -0.4959    0.3061    1.9210 H   0  0  0  0  0  0  0  0  0  0  0  0
   -1.6185    1.4243    1.5632 H   0  0  0  0  0  0  0  0  0  0  0  0
   -1.5366   -1.3393    0.5765 H   0  0  0  0  0  0  0  0  0  0  0  0
    0.5400   -2.0698   -0.8404 H   0  0  0  0  0  0  0  0  0  0  0  0
    1.0029    2.1758   -0.2137 H   0  0  0  0  0  0  0  0  0  0  0  0
   -3.8577   -0.5375    0.9104 H   0  0  0  0  0  0  0  0  0  0  0  0
   -3.4896   -0.6869   -0.8119 H   0  0  0  0  0  0  0  0  0  0  0  0
   -3.5217    0.9132   -0.0521 H   0  0  0  0  0  0  0  0  0  0  0  0
    3.4262    1.8520    0.1178 H   0  0  0  0  0  0  0  0  0  0  0  0
    2.9660   -2.3729   -0.5044 H   0  0  0  0  0  0  0  0  0  0  0  0
    4.4150   -0.4181   -0.0243 H   0  0  0  0  0  0  0  0  0  0  0  0
    0.6102    1.9880    0.6347 H   0  0  0  0  0  0  0  0  0  0  0  0
    1.0787    0.6458    1.6537 H   0  0  0  0  0  0  0  0  0  0  0  0
    3.3983    1.0466    0.6949 H   0  0  0  0  0  0  0  0  0  0  0  0
    2.8152    2.2226   -0.2726 H   0  0  0  0  0  0  0  0  0  0  0  0
    1.3886    0.6770   -1.4139 H   0  0  0  0  0  0  0  0  0  0  0  0
   -0.5217   -1.0762    2.0972 H   0  0  0  0  0  0  0  0  0  0  0  0
   -1.1088    1.5244   -1.2974 H   0  0  0  0  0  0  0  0  0  0  0  0
    1.2201   -1.6396   -0.5469 H   0  0  0  0  0  0  0  0  0  0  0  0
    2.8752   -1.2956   -1.0440 H   0  0  0  0  0  0  0  0  0  0  0  0
    2.4557   -1.3011    0.6779 H   0  0  0  0  0  0  0  0  0  0  0  0
   -2.7570   -2.0512    1.7235 H   0  0  0  0  0  0  0  0  0  0  0  0
   -3.3409    0.5341   -1.6564 H   0  0  0  0  0  0  0  0  0  0  0  0
   -4.1717   -1.2533   -0.1508 H   0  0  0  0  0  0  0  0  0  0  0  0
  4  2  1  0
  3  1  1  0
  4  1  1  0
  5  3  2  0
  6  3  1  0
  4  7  1  0
  8  5  1  0
  9  6  2  0
 10  8  2  0
  9 10  1  0
 12 14  1  0
 13 11  1  0
 14 11  1  0
 15 13  2  0
 16 13  1  0
 17 14  1  0
 18 16  2  0
 19 15  1  0
 20 18  1  0
 19 20  2  0
 24 22  1  0
 23 21  1  0
 24 21  1  0
 25 23  2  0
 26 23  1  0
 24 27  1  0
 28 25  1  0
 29 26  2  0
 30 28  2  0
 29 30  1  0
  1 31  1  0
  1 32  1  0
  2 33  1  0
  2 34  1  0
  4 35  1  6
  5 36  1  0
  6 37  1  0
  7 38  1  0
  7 39  1  0
  7 40  1  0
  8 41  1  0
  9 42  1  0
 10 43  1  0
 11 44  1  0
 11 45  1  0
 12 46  1  0
 12 47  1  0
 14 48  1  1
 15 49  1  0
 16 50  1  0
 17 51  1  0
 17 52  1  0
 17 53  1  0
 18 54  1  0
 19 55  1  0
 20 56  1  0
 21 57  1  0
 21 58  1  0
 22 59  1  0
 22 60  1  0
 24 61  1  6
 25 62  1  0
 26 63  1  0
 27 64  1  0
 27 65  1  0
 27 66  1  0
 28 67  1  0
 29 68  1  0
 30 69  1  0
M  END
$$$$
