
     RDKit          3D

 69 69  0  0  0  0  0  0  0  0999 V2000
   -0.9195   -0.2613   -0.8450 C   0  0  0  0  0  0  0  0  0  0  0  0
   -3.0439    0.9962   -0.6496 N   0  0  0  0  0  0  0  0  0  0  0  0
    0.5345   -0.3669   -0.4488 C   0  0  0  0  0  0  0  0  0  0  0  0
   -1.6960    0.8353   -0.0847 C   0  0  1  0  0  0  0  0  0  0  0  0
    1.4509    0.6199   -0.8385 C   0  0  0  0  0  0  0  0  0  0  0  0
    0.9879   -1.4497    0.3166 C   0  0  0  0  0  0  0  0  0  0  0  0
   -1.8373    0.5203    1.4049 C   0  0  0  0  0  0  0  0  0  0  0  0
    2.7930    0.5259   -0.4675 C   0  0  0  0  0  0  0  0  0  0  0  0
    2.3307   -1.5418    0.6866 C   0  0  0  0  0  0  0  0  0  0  0  0
    3.2325   -0.5544    0.2950 C   0  0  0  0  0  0  0  0  0  0  0  0
   -0.7996    0.3677   -0.7826 C   0  0  0  0  0  0  0  0  0  0  0  0
   -1.6949    0.2045    1.5530 N   0  0  0  0  0  0  0  0  0  0  0  0
    0.6521    0.1385   -0.4274 C   0  0  0  0  0  0  0  0  0  0  0  0
   -1.7940   -0.3150    0.1828 C   0  0  1  0  0  0  0  0  0  0  0  0
    1.2371   -1.1231   -0.6033 C   0  0  0  0  0  0  0  0  0  0  0  0
    1.4320    1.1822    0.0894 C   0  0  0  0  0  0  0  0  0  0  0  0
   -3.2280   -0.1173   -0.3065 C   0  0  0  0  0  0  0  0  0  0  0  0
    2.7692    0.9665    0.4263 C   0  0  0  0  0  0  0  0  0  0  0  0
    2.5744   -1.3366   -0.2657 C   0  0  0  0  0  0  0  0  0  0  0  0
    3.3398   -0.2924    0.2494 C   0  0  0  0  0  0  0  0  0  0  0  0
   -0.7937    0.8571    0.8773 C   0  0  0  0  0  0  0  0  0  0  0  0
   -2.0259    0.9923   -1.3062 N   0  0  0  0  0  0  0  0  0  0  0  0
    0.5745    0.3436    0.4887 C   0  0  0  0  0  0  0  0  0  0  0  0
   -1.9883    0.3708    0.0229 C   0  0  1  0  0  0  0  0  0  0  0  0
    1.2102    0.7984   -0.6738 C   0  0  0  0  0  0  0  0  0  0  0  0
    1.2353   -0.5944    1.2955 C   0  0  0  0  0  0  0  0  0  0  0  0
   -2.0427   -1.1500   -0.1152 C   0  0  0  0  0  0  0  0  0  0  0  0
    2.4757    0.3245   -1.0245 C   0  0  0  0  0  0  0  0  0  0  0  0
    2.5014   -1.0673    0.9445 C   0  0  0  0  0  0  0  0  0  0  0  0
    3.1213   -0.6077   -0.2153 C   0  0  0  0  0  0  0  0  0  0  0  0
   -1.4134   -1.2331   -0.7103 H   0  0  0  0  0  0  0  0  0  0  0  0
   -0.9545   -0.0611   -1.9249 H   0  0  0  0  0  0  0  0  0  0  0  0
   -3.5598    0.1206   -0.5673 H   0  0  0  0  0  0  0  0  0  0  0  0
   -2.9762    1.1941   -1.6473 H   0  0  0  0  0  0  0  0  0  0  0  0
   -1.1787    1.7964   -0.1870 H   0  0  0  0  0  0  0  0  0  0  0  0
    1.1243    1.4689   -1.4351 H   0  0  0  0  0  0  0  0  0  0  0  0
    0.2977   -2.2282    0.6336 H   0  0  0  0  0  0  0  0  0  0  0  0
   -2.3263   -0.4469    1.5673 H   0  0  0  0  0  0  0  0  0  0  0  0
   -2.4324    1.2882    1.9125 H   0  0  0  0  0  0  0  0  0  0  0  0
   -0.8601    0.4928    1.8977 H   0  0  0  0  0  0  0  0  0  0  0  0
    3.4960    1.2961   -0.7738 H   0  0  0  0  0  0  0  0  0  0  0  0
    2.6730   -2.3844    1.2817 H   0  0  0  0  0  0  0  0  0  0  0  0
    4.2776   -0.6268    0.5839 H   0  0  0  0  0  0  0  0  0  0  0  0
   -0.9609   -0.0052   -1.8029 H   0  0  0  0  0  0  0  0  0  0  0  0
   -1.0035    1.4460   -0.8274 H   0  0  0  0  0  0  0  0  0  0  0  0
   -0.7433    0.0487    1.8921 H   0  0  0  0  0  0  0  0  0  0  0  0
   -1.8187    1.2160    1.5464 H   0  0  0  0  0  0  0  0  0  0  0  0
   -1.5920   -1.3921    0.2183 H   0  0  0  0  0  0  0  0  0  0  0  0
    0.6539   -1.9488   -1.0047 H   0  0  0  0  0  0  0  0  0  0  0  0
    1.0035    2.1713    0.2340 H   0  0  0  0  0  0  0  0  0  0  0  0
   -3.4958    0.9443   -0.3527 H   0  0  0  0  0  0  0  0  0  0  0  0
   -3.9422   -0.6181    0.3568 H   0  0  0  0  0  0  0  0  0  0  0  0
   -3.3557   -0.5406   -1.3087 H   0  0  0  0  0  0  0  0  0  0  0  0
    3.3666    1.7816    0.8265 H   0  0  0  0  0  0  0  0  0  0  0  0
    3.0190   -2.3185   -0.4049 H   0  0  0  0  0  0  0  0  0  0  0  0
    4.3811   -0.4595    0.5117 H   0  0  0  0  0  0  0  0  0  0  0  0
   -0.9905    0.5792    1.9219 H   0  0  0  0  0  0  0  0  0  0  0  0
   -0.7626    1.9553    0.8800 H   0  0  0  0  0  0  0  0  0  0  0  0
   -2.1148    2.0025   -1.2095 H   0  0  0  0  0  0  0  0  0  0  0  0
   -2.8515    0.6737   -1.8113 H   0  0  0  0  0  0  0  0  0  0  0  0
   -2.9011    0.6883    0.5431 H   0  0  0  0  0  0  0  0  0  0  0  0
    0.7168    1.5207   -1.3201 H   0  0  0  0  0  0  0  0  0  0  0  0
    0.7672   -0.9661    2.2038 H   0  0  0  0  0  0  0  0  0  0  0  0
   -2.0172   -1.6291    0.8694 H   0  0  0  0  0  0  0  0  0  0  0  0
   -2.9697   -1.4622   -0.6094 H   0  0  0  0  0  0  0  0  0  0  0  0
   -1.2067   -1.5394   -0.7061 H   0  0  0  0  0  0  0  0  0  0  0  0
    2.9541    0.6819   -1.9322 H   0  0  0  0  0  0  0  0  0  0  0  0
    3.0029   -1.7953    1.5762 H   0  0  0  0  0  0  0  0  0  0  0  0
    4.1055   -0.9770   -0.4899 H   0  0  0  0  0  0  0  0  0  0  0  0
  4  2  1  0
  3  1  1  0
  4  1  1  0
  5  3  2  0
  6  3  1  0
  4  7  1  0
  8  5  1  0
  9  6  2  0
 10  8  2  0
  9 10  1  0
 12 14  1  0
 13 11  1  0
 14 11  1  0
 15 13  2  0
 16 13  1  0
 17 14  1  0
 18 16  2  0
 19 15  1  0
 20 18  1  0
 19 20  2  0
 24 22  1  0
 23 21  1  0
 24 21  1  0
 25 23  2  0
 26 23  1  0
 24 27  1  0
 28 25  1  0
 29 26  2  0
 30 28  2  0
 29 30  1  0
  1 31  1  0
  1 32  1  0
  2 33  1  0
  2 34  1  0
  4 35  1  1
  5 36  1  0
  6 37  1  0
  7 38  1  0
  7 39  1  0
  7 40  1  0
  8 41  1  0
  9 42  1  0
 10 43  1  0
 11 44  1  0
 11 45  1  0
 12 46  1  0
 12 47  1  0
 14 48  1  1
 15 49  1  0
 16 50  1  0
 17 51  1  0
 17 52  1  0
 17 53  1  0
 18 54  1  0
 19 55  1  0
 20 56  1  0
 21 57  1  0
 21 58  1  0
 22 59  1  0
 22 60  1  0
 24 61  1  1
 25 62  1  0
 26 63  1  0
 27 64  1  0
 27 65  1  0
 27 66  1  0
 28 67  1  0
 29 68  1  0
 30 69  1  0
M  END
$$$$
