
     RDKit          3D

 30 30  0  0  0  0  0  0  0  0999 V2000
    1.4320    0.2854   -1.0956 C   0  0  0  0  0  0  0  0  0  0  0  0
    1.8175    1.3761    0.9880 N   0  0  0  0  0  0  0  0  0  0  0  0
    0.0330    0.0563   -0.6147 C   0  0  0  0  0  0  0  0  0  0  0  0
    2.3118    0.2813    0.1402 C   0  0  1  0  0  0  0  0  0  0  0  0
   -0.7872    1.1190   -0.2725 C   0  0  0  0  0  0  0  0  0  0  0  0
   -0.4712   -1.2410   -0.5025 C   0  0  0  0  0  0  0  0  0  0  0  0
    2.0905   -0.9844    0.9576 C   0  0  0  0  0  0  0  0  0  0  0  0
   -2.0762    0.9009    0.1702 C   0  0  0  0  0  0  0  0  0  0  0  0
   -1.7601   -1.4213   -0.0579 C   0  0  0  0  0  0  0  0  0  0  0  0
   -2.5903   -0.3723    0.2871 C   0  0  0  0  0  0  0  0  0  0  0  0
   -1.2540    1.0351    0.6956 C   0  0  0  0  0  0  0  0  0  0  0  0
   -1.9006    0.2624   -1.5578 N   0  0  0  0  0  0  0  0  0  0  0  0
    0.1058    0.4236    0.5672 C   0  0  0  0  0  0  0  0  0  0  0  0
   -2.2168    0.2758   -0.1692 C   0  0  0  0  0  0  0  0  0  0  0  0
    0.9167    0.9176   -0.4180 C   0  0  0  0  0  0  0  0  0  0  0  0
    0.5065   -0.5892    1.4105 C   0  0  0  0  0  0  0  0  0  0  0  0
   -2.6880   -1.0243    0.4016 C   0  0  0  0  0  0  0  0  0  0  0  0
    1.7652   -1.0864    1.2188 C   0  0  0  0  0  0  0  0  0  0  0  0
    2.1764    0.3997   -0.5884 C   0  0  0  0  0  0  0  0  0  0  0  0
    2.5887   -0.6141    0.2493 C   0  0  0  0  0  0  0  0  0  0  0  0
    1.0807   -0.0294    1.3371 C   0  0  0  0  0  0  0  0  0  0  0  0
    2.2973   -1.3670   -0.3472 N   0  0  0  0  0  0  0  0  0  0  0  0
   -0.1799    0.0344    0.5835 C   0  0  0  0  0  0  0  0  0  0  0  0
    2.2841   -0.1828    0.4698 C   0  0  1  0  0  0  0  0  0  0  0  0
   -0.8459   -1.1459    0.3176 C   0  0  0  0  0  0  0  0  0  0  0  0
   -0.6760    1.2561    0.1565 C   0  0  0  0  0  0  0  0  0  0  0  0
    2.4874    1.0550   -0.3779 C   0  0  0  0  0  0  0  0  0  0  0  0
   -2.0286   -1.0674   -0.3915 C   0  0  0  0  0  0  0  0  0  0  0  0
   -1.8692    1.2998   -0.5549 C   0  0  0  0  0  0  0  0  0  0  0  0
   -2.5498    0.1473   -0.8325 C   0  0  0  0  0  0  0  0  0  0  0  0
  4  2  1  0
  3  1  1  0
  4  1  1  0
  5  3  2  0
  6  3  1  0
  4  7  1  1
  8  5  1  0
  9  6  2  0
 10  8  2  0
  9 10  1  0
 12 14  1  0
 13 11  1  0
 14 11  1  0
 15 13  2  0
 16 13  1  0
 17 14  1  0
 18 16  2  0
 19 15  1  0
 20 18  1  0
 19 20  2  0
 24 22  1  0
 23 21  1  0
 24 21  1  0
 25 23  2  0
 26 23  1  0
 24 27  1  6
 28 25  1  0
 29 26  2  0
 30 28  2  0
 29 30  1  0
M  END
