
     RDKit          3D

 75 80  0  0  0  0  0  0  0  0999 V2000
   -1.4700   -1.3340   -0.8133 C   0  0  0  0  0  0  0  0  0  0  0  0
   -2.5012   -0.7159   -1.5289 C   0  0  0  0  0  0  0  0  0  0  0  0
   -2.5836    0.6896   -1.4264 C   0  0  0  0  0  0  0  0  0  0  0  0
   -1.7442    1.4659   -0.6032 C   0  0  0  0  0  0  0  0  0  0  0  0
   -0.6964    0.7983    0.0600 C   0  0  0  0  0  0  0  0  0  0  0  0
   -0.5786   -0.5958   -0.0276 C   0  0  0  0  0  0  0  0  0  0  0  0
   -3.3896   -1.4103   -2.3522 N   0  0  0  0  0  0  0  0  0  0  0  0
   -4.8341   -1.0974   -2.2036 C   0  0  0  0  0  0  0  0  0  0  0  0
   -5.4934   -2.0292   -1.1572 C   0  0  0  0  0  0  0  0  0  0  0  0
   -5.3199   -3.4629   -1.4881 N   0  0  0  0  0  0  0  0  0  0  0  0
   -3.8783   -3.7624   -1.6425 C   0  0  0  0  0  0  0  0  0  0  0  0
   -3.1849   -2.8391   -2.6743 C   0  0  0  0  0  0  0  0  0  0  0  0
   -1.8616    2.8746   -0.5526 N   0  0  0  0  0  0  0  0  0  0  0  0
   -3.2104    3.4619   -0.4858 C   0  0  0  0  0  0  0  0  0  0  0  0
   -3.0893    4.9786   -0.6245 C   0  0  0  0  0  0  0  0  0  0  0  0
   -4.4669    5.6322   -0.5458 C   0  0  0  0  0  0  0  0  0  0  0  0
   -5.4096    4.8833    0.2268 O   0  0  0  0  0  0  0  0  0  0  0  0
   -4.8046    4.2233    1.3338 C   0  0  0  0  0  0  0  0  0  0  0  0
   -3.9036    3.1005    0.8368 C   0  0  0  0  0  0  0  0  0  0  0  0
    0.2752    1.5576    0.9023 C   0  0  0  0  0  0  0  0  0  0  0  0
    1.5847    1.1529    0.7501 N   0  0  0  0  0  0  0  0  0  0  0  0
   -0.1571    2.4665    1.6030 O   0  0  0  0  0  0  0  0  0  0  0  0
    2.6639    1.6441    1.4590 C   0  0  0  0  0  0  0  0  0  0  0  0
    2.5941    2.5374    2.4466 N   0  0  0  0  0  0  0  0  0  0  0  0
    3.8612    2.6943    2.8488 N   0  0  0  0  0  0  0  0  0  0  0  0
    4.7669    1.9288    2.1674 C   0  0  0  0  0  0  0  0  0  0  0  0
    4.0131    1.2293    1.2342 C   0  0  0  0  0  0  0  0  0  0  0  0
    4.6720    0.3405    0.3592 C   0  0  0  0  0  0  0  0  0  0  0  0
    6.0683    0.1801    0.4526 C   0  0  0  0  0  0  0  0  0  0  0  0
    6.7851    0.9007    1.4186 C   0  0  0  0  0  0  0  0  0  0  0  0
    6.1514    1.7934    2.2915 C   0  0  0  0  0  0  0  0  0  0  0  0
    6.7825   -0.7909   -0.4617 C   0  0  0  0  0  0  0  0  0  0  0  0
    6.7730   -2.2101    0.0554 C   0  0  0  0  0  0  0  0  0  0  0  0
    7.7866   -2.6656    0.9101 C   0  0  0  0  0  0  0  0  0  0  0  0
    7.7531   -3.9691    1.4027 C   0  0  0  0  0  0  0  0  0  0  0  0
    6.7250   -4.8387    1.0685 C   0  0  0  0  0  0  0  0  0  0  0  0
    5.7185   -4.3864    0.2291 C   0  0  0  0  0  0  0  0  0  0  0  0
    5.7317   -3.0892   -0.2801 C   0  0  0  0  0  0  0  0  0  0  0  0
    4.7124   -5.2081   -0.0977 F   0  0  0  0  0  0  0  0  0  0  0  0
    8.7318   -4.3874    2.2152 F   0  0  0  0  0  0  0  0  0  0  0  0
   -5.9174   -4.3069   -0.4563 C   0  0  0  0  0  0  0  0  0  0  0  0
   -1.3368   -2.4113   -0.8343 H   0  0  0  0  0  0  0  0  0  0  0  0
   -3.3068    1.2027   -2.0544 H   0  0  0  0  0  0  0  0  0  0  0  0
    0.1859   -1.1275    0.5335 H   0  0  0  0  0  0  0  0  0  0  0  0
   -5.0273   -0.0558   -1.9283 H   0  0  0  0  0  0  0  0  0  0  0  0
   -5.3187   -1.2463   -3.1774 H   0  0  0  0  0  0  0  0  0  0  0  0
   -6.5637   -1.7934   -1.1183 H   0  0  0  0  0  0  0  0  0  0  0  0
   -5.0718   -1.8127   -0.1664 H   0  0  0  0  0  0  0  0  0  0  0  0
   -3.7580   -4.7991   -1.9795 H   0  0  0  0  0  0  0  0  0  0  0  0
   -3.3712   -3.6745   -0.6732 H   0  0  0  0  0  0  0  0  0  0  0  0
   -3.6245   -3.0267   -3.6629 H   0  0  0  0  0  0  0  0  0  0  0  0
   -2.1231   -3.0901   -2.7767 H   0  0  0  0  0  0  0  0  0  0  0  0
   -1.2888    3.2250    0.2307 H   0  0  0  0  0  0  0  0  0  0  0  0
   -3.8239    3.1177   -1.3260 H   0  0  0  0  0  0  0  0  0  0  0  0
   -2.4579    5.3717    0.1832 H   0  0  0  0  0  0  0  0  0  0  0  0
   -2.5904    5.2613   -1.5595 H   0  0  0  0  0  0  0  0  0  0  0  0
   -4.8918    5.7312   -1.5503 H   0  0  0  0  0  0  0  0  0  0  0  0
   -4.3889    6.6421   -0.1292 H   0  0  0  0  0  0  0  0  0  0  0  0
   -5.5973    3.8155    1.9702 H   0  0  0  0  0  0  0  0  0  0  0  0
   -4.2478    4.9502    1.9360 H   0  0  0  0  0  0  0  0  0  0  0  0
   -4.5095    2.2012    0.6668 H   0  0  0  0  0  0  0  0  0  0  0  0
   -3.1911    2.8385    1.6284 H   0  0  0  0  0  0  0  0  0  0  0  0
    1.8051    0.4849    0.0286 H   0  0  0  0  0  0  0  0  0  0  0  0
    4.0423    3.3428    3.6064 H   0  0  0  0  0  0  0  0  0  0  0  0
    4.1049   -0.2169   -0.3794 H   0  0  0  0  0  0  0  0  0  0  0  0
    7.8630    0.7716    1.5038 H   0  0  0  0  0  0  0  0  0  0  0  0
    6.7176    2.3453    3.0342 H   0  0  0  0  0  0  0  0  0  0  0  0
    6.3258   -0.7572   -1.4596 H   0  0  0  0  0  0  0  0  0  0  0  0
    7.8183   -0.4624   -0.6183 H   0  0  0  0  0  0  0  0  0  0  0  0
    8.6062   -2.0148    1.2045 H   0  0  0  0  0  0  0  0  0  0  0  0
    6.7068   -5.8488    1.4598 H   0  0  0  0  0  0  0  0  0  0  0  0
    4.9226   -2.7766   -0.9332 H   0  0  0  0  0  0  0  0  0  0  0  0
   -6.9889   -4.0982   -0.3647 H   0  0  0  0  0  0  0  0  0  0  0  0
   -5.8242   -5.3653   -0.7280 H   0  0  0  0  0  0  0  0  0  0  0  0
   -5.4523   -4.1588    0.5257 H   0  0  0  0  0  0  0  0  0  0  0  0
  1  2  2  0
  1  6  1  0
  2  3  1  0
  3  4  2  0
  4  5  1  0
  5  6  2  0
  2  7  1  0
  7  8  1  0
 12  7  1  0
  8  9  1  0
  9 10  1  0
 10 11  1  0
 11 12  1  0
  4 13  1  0
 13 14  1  0
 14 15  1  0
 19 14  1  0
 15 16  1  0
 16 17  1  0
 17 18  1  0
 18 19  1  0
  5 20  1  0
 20 21  1  0
 20 22  2  0
 21 23  1  0
 23 24  2  0
 23 27  1  0
 24 25  1  0
 25 26  1  0
 31 26  2  0
 26 27  1  0
 27 28  2  0
 28 29  1  0
 29 30  2  0
 30 31  1  0
 29 32  1  0
 32 33  1  0
 33 34  2  0
 33 38  1  0
 34 35  1  0
 35 36  2  0
 36 37  1  0
 37 38  2  0
 37 39  1  0
 35 40  1  0
 10 41  1  0
  1 42  1  0
  3 43  1  0
  6 44  1  0
  8 45  1  0
  8 46  1  0
  9 47  1  0
  9 48  1  0
 11 49  1  0
 11 50  1  0
 12 51  1  0
 12 52  1  0
 13 53  1  0
 14 54  1  0
 15 55  1  0
 15 56  1  0
 16 57  1  0
 16 58  1  0
 18 59  1  0
 18 60  1  0
 19 61  1  0
 19 62  1  0
 21 63  1  0
 25 64  1  0
 28 65  1  0
 30 66  1  0
 31 67  1  0
 32 68  1  0
 32 69  1  0
 34 70  1  0
 36 71  1  0
 38 72  1  0
 41 73  1  0
 41 74  1  0
 41 75  1  0
M  END
$$$$
