
     RDKit          3D

 75 80  0  0  0  0  0  0  0  0999 V2000
    1.9493    0.9253   -2.8497 C   0  0  0  0  0  0  0  0  0  0  0  0
    3.1755    0.6042   -2.2553 C   0  0  0  0  0  0  0  0  0  0  0  0
    3.1503    0.0629   -0.9627 C   0  0  0  0  0  0  0  0  0  0  0  0
    1.9488   -0.1543   -0.2567 C   0  0  0  0  0  0  0  0  0  0  0  0
    0.7334    0.1509   -0.9019 C   0  0  0  0  0  0  0  0  0  0  0  0
    0.7401    0.7058   -2.1858 C   0  0  0  0  0  0  0  0  0  0  0  0
    4.3554    0.8114   -2.9830 N   0  0  0  0  0  0  0  0  0  0  0  0
    4.5207   -0.1807   -4.0766 C   0  0  0  0  0  0  0  0  0  0  0  0
    5.9761   -0.2099   -4.5999 C   0  0  0  0  0  0  0  0  0  0  0  0
    7.0126   -0.4890   -3.5792 N   0  0  0  0  0  0  0  0  0  0  0  0
    6.5755   -0.0539   -2.2322 C   0  0  0  0  0  0  0  0  0  0  0  0
    5.6020    1.1437   -2.2586 C   0  0  0  0  0  0  0  0  0  0  0  0
    2.0360   -0.6501    1.0703 N   0  0  0  0  0  0  0  0  0  0  0  0
    1.5208    0.2685    2.1115 C   0  0  0  0  0  0  0  0  0  0  0  0
    2.5022    1.4157    2.3724 C   0  0  0  0  0  0  0  0  0  0  0  0
    2.0139    2.2486    3.5474 C   0  0  0  0  0  0  0  0  0  0  0  0
    1.8604    1.4337    4.7081 O   0  0  0  0  0  0  0  0  0  0  0  0
    0.8811    0.4095    4.5240 C   0  0  0  0  0  0  0  0  0  0  0  0
    1.3006   -0.5268    3.4001 C   0  0  0  0  0  0  0  0  0  0  0  0
   -0.5985   -0.1350   -0.2994 C   0  0  0  0  0  0  0  0  0  0  0  0
   -0.6768   -1.3557    0.3175 N   0  0  0  0  0  0  0  0  0  0  0  0
   -1.4750    0.7141   -0.4032 O   0  0  0  0  0  0  0  0  0  0  0  0
   -1.7023   -1.9011    1.0524 C   0  0  0  0  0  0  0  0  0  0  0  0
   -1.4665   -3.1233    1.5478 N   0  0  0  0  0  0  0  0  0  0  0  0
   -2.5854   -3.4331    2.2115 N   0  0  0  0  0  0  0  0  0  0  0  0
   -3.5301   -2.4494    2.2126 C   0  0  0  0  0  0  0  0  0  0  0  0
   -2.9911   -1.4193    1.4431 C   0  0  0  0  0  0  0  0  0  0  0  0
   -3.7750   -0.2591    1.2762 C   0  0  0  0  0  0  0  0  0  0  0  0
   -5.0467   -0.1604    1.8769 C   0  0  0  0  0  0  0  0  0  0  0  0
   -5.5362   -1.2284    2.6358 C   0  0  0  0  0  0  0  0  0  0  0  0
   -4.7896   -2.3937    2.8161 C   0  0  0  0  0  0  0  0  0  0  0  0
   -5.8823    1.0830    1.6734 C   0  0  0  0  0  0  0  0  0  0  0  0
   -6.8374    0.9687    0.5093 C   0  0  0  0  0  0  0  0  0  0  0  0
   -6.4336    1.3249   -0.7851 C   0  0  0  0  0  0  0  0  0  0  0  0
   -7.3147    1.1800   -1.8552 C   0  0  0  0  0  0  0  0  0  0  0  0
   -8.5973    0.6837   -1.6700 C   0  0  0  0  0  0  0  0  0  0  0  0
   -8.9959    0.3309   -0.3904 C   0  0  0  0  0  0  0  0  0  0  0  0
   -8.1350    0.4691    0.6956 C   0  0  0  0  0  0  0  0  0  0  0  0
  -10.2286   -0.1545   -0.1919 F   0  0  0  0  0  0  0  0  0  0  0  0
   -6.9191    1.5259   -3.0881 F   0  0  0  0  0  0  0  0  0  0  0  0
    7.3950   -1.9000   -3.5596 C   0  0  0  0  0  0  0  0  0  0  0  0
    1.9315    1.3616   -3.8463 H   0  0  0  0  0  0  0  0  0  0  0  0
    4.0859   -0.2056   -0.4834 H   0  0  0  0  0  0  0  0  0  0  0  0
   -0.1945    0.9600   -2.6806 H   0  0  0  0  0  0  0  0  0  0  0  0
    4.2545   -1.1866   -3.7256 H   0  0  0  0  0  0  0  0  0  0  0  0
    3.8526    0.0743   -4.9078 H   0  0  0  0  0  0  0  0  0  0  0  0
    6.2034    0.7779   -5.0235 H   0  0  0  0  0  0  0  0  0  0  0  0
    6.0508   -0.9141   -5.4381 H   0  0  0  0  0  0  0  0  0  0  0  0
    6.0824   -0.8797   -1.7044 H   0  0  0  0  0  0  0  0  0  0  0  0
    7.4625    0.2165   -1.6496 H   0  0  0  0  0  0  0  0  0  0  0  0
    5.4070    1.5016   -1.2396 H   0  0  0  0  0  0  0  0  0  0  0  0
    6.0779    1.9851   -2.7792 H   0  0  0  0  0  0  0  0  0  0  0  0
    3.0020   -0.9010    1.2933 H   0  0  0  0  0  0  0  0  0  0  0  0
    0.5585    0.7001    1.8187 H   0  0  0  0  0  0  0  0  0  0  0  0
    2.6068    2.0516    1.4869 H   0  0  0  0  0  0  0  0  0  0  0  0
    3.4940    1.0080    2.6012 H   0  0  0  0  0  0  0  0  0  0  0  0
    1.0656    2.7469    3.3187 H   0  0  0  0  0  0  0  0  0  0  0  0
    2.7442    3.0294    3.7817 H   0  0  0  0  0  0  0  0  0  0  0  0
    0.8049   -0.1504    5.4602 H   0  0  0  0  0  0  0  0  0  0  0  0
   -0.0946    0.8671    4.3253 H   0  0  0  0  0  0  0  0  0  0  0  0
    0.5386   -1.3031    3.2530 H   0  0  0  0  0  0  0  0  0  0  0  0
    2.2340   -1.0334    3.6790 H   0  0  0  0  0  0  0  0  0  0  0  0
    0.1605   -1.9289    0.3448 H   0  0  0  0  0  0  0  0  0  0  0  0
   -2.6411   -4.3406    2.6570 H   0  0  0  0  0  0  0  0  0  0  0  0
   -3.4064    0.5720    0.6855 H   0  0  0  0  0  0  0  0  0  0  0  0
   -6.5190   -1.1619    3.0976 H   0  0  0  0  0  0  0  0  0  0  0  0
   -5.1771   -3.2167    3.4074 H   0  0  0  0  0  0  0  0  0  0  0  0
   -6.4386    1.3055    2.5938 H   0  0  0  0  0  0  0  0  0  0  0  0
   -5.2273    1.9522    1.5300 H   0  0  0  0  0  0  0  0  0  0  0  0
   -5.4322    1.7049   -0.9755 H   0  0  0  0  0  0  0  0  0  0  0  0
   -9.2724    0.5707   -2.5095 H   0  0  0  0  0  0  0  0  0  0  0  0
   -8.4852    0.1770    1.6790 H   0  0  0  0  0  0  0  0  0  0  0  0
    8.1984   -2.0638   -2.8308 H   0  0  0  0  0  0  0  0  0  0  0  0
    7.7866   -2.2115   -4.5352 H   0  0  0  0  0  0  0  0  0  0  0  0
    6.5529   -2.5546   -3.3015 H   0  0  0  0  0  0  0  0  0  0  0  0
  1  2  2  0
  1  6  1  0
  2  3  1  0
  3  4  2  0
  4  5  1  0
  5  6  2  0
  2  7  1  0
  7  8  1  0
 12  7  1  0
  8  9  1  0
  9 10  1  0
 10 11  1  0
 11 12  1  0
  4 13  1  0
 13 14  1  0
 14 15  1  0
 19 14  1  0
 15 16  1  0
 16 17  1  0
 17 18  1  0
 18 19  1  0
  5 20  1  0
 20 21  1  0
 20 22  2  0
 21 23  1  0
 23 24  2  0
 23 27  1  0
 24 25  1  0
 25 26  1  0
 31 26  2  0
 26 27  1  0
 27 28  2  0
 28 29  1  0
 29 30  2  0
 30 31  1  0
 29 32  1  0
 32 33  1  0
 33 34  2  0
 33 38  1  0
 34 35  1  0
 35 36  2  0
 36 37  1  0
 37 38  2  0
 37 39  1  0
 35 40  1  0
 10 41  1  0
  1 42  1  0
  3 43  1  0
  6 44  1  0
  8 45  1  0
  8 46  1  0
  9 47  1  0
  9 48  1  0
 11 49  1  0
 11 50  1  0
 12 51  1  0
 12 52  1  0
 13 53  1  0
 14 54  1  0
 15 55  1  0
 15 56  1  0
 16 57  1  0
 16 58  1  0
 18 59  1  0
 18 60  1  0
 19 61  1  0
 19 62  1  0
 21 63  1  0
 25 64  1  0
 28 65  1  0
 30 66  1  0
 31 67  1  0
 32 68  1  0
 32 69  1  0
 34 70  1  0
 36 71  1  0
 38 72  1  0
 41 73  1  0
 41 74  1  0
 41 75  1  0
M  END
$$$$
