
     RDKit          3D

 75 80  0  0  0  0  0  0  0  0999 V2000
   -1.4678   -0.5406    1.3228 C   0  0  0  0  0  0  0  0  0  0  0  0
   -2.7819   -0.3368    0.8837 C   0  0  0  0  0  0  0  0  0  0  0  0
   -2.9614    0.5976   -0.1561 C   0  0  0  0  0  0  0  0  0  0  0  0
   -1.9005    1.3089   -0.7556 C   0  0  0  0  0  0  0  0  0  0  0  0
   -0.5898    1.0070   -0.3299 C   0  0  0  0  0  0  0  0  0  0  0  0
   -0.3847    0.1155    0.7325 C   0  0  0  0  0  0  0  0  0  0  0  0
   -3.8438   -1.0153    1.4571 N   0  0  0  0  0  0  0  0  0  0  0  0
   -3.6627   -2.3360    2.0854 C   0  0  0  0  0  0  0  0  0  0  0  0
   -4.9289   -3.2134    1.9281 C   0  0  0  0  0  0  0  0  0  0  0  0
   -6.1882   -2.6224    2.4264 N   0  0  0  0  0  0  0  0  0  0  0  0
   -6.1249   -1.1432    2.4222 C   0  0  0  0  0  0  0  0  0  0  0  0
   -5.2364   -0.5575    1.3004 C   0  0  0  0  0  0  0  0  0  0  0  0
   -2.1313    2.1951   -1.8338 N   0  0  0  0  0  0  0  0  0  0  0  0
   -3.2654    3.1329   -1.7549 C   0  0  0  0  0  0  0  0  0  0  0  0
   -3.4164    3.8400   -3.1124 C   0  0  0  0  0  0  0  0  0  0  0  0
   -2.8053    5.2306   -3.0680 C   0  0  0  0  0  0  0  0  0  0  0  0
   -3.4478    6.0686   -2.1063 O   0  0  0  0  0  0  0  0  0  0  0  0
   -3.8307    5.4191   -0.8940 C   0  0  0  0  0  0  0  0  0  0  0  0
   -3.0555    4.1421   -0.6171 C   0  0  0  0  0  0  0  0  0  0  0  0
    0.5927    1.6645   -0.9733 C   0  0  0  0  0  0  0  0  0  0  0  0
    1.6913    0.8410   -1.1139 N   0  0  0  0  0  0  0  0  0  0  0  0
    0.4775    2.8289   -1.3416 O   0  0  0  0  0  0  0  0  0  0  0  0
    2.9138    1.2126   -1.6387 C   0  0  0  0  0  0  0  0  0  0  0  0
    3.2316    2.4359   -2.0607 N   0  0  0  0  0  0  0  0  0  0  0  0
    4.4980    2.3299   -2.4807 N   0  0  0  0  0  0  0  0  0  0  0  0
    5.0348    1.0801   -2.3377 C   0  0  0  0  0  0  0  0  0  0  0  0
    4.0171    0.3156   -1.7825 C   0  0  0  0  0  0  0  0  0  0  0  0
    4.2669   -1.0443   -1.5029 C   0  0  0  0  0  0  0  0  0  0  0  0
    5.5327   -1.5918   -1.7896 C   0  0  0  0  0  0  0  0  0  0  0  0
    6.5291   -0.7785   -2.3500 C   0  0  0  0  0  0  0  0  0  0  0  0
    6.3005    0.5716   -2.6387 C   0  0  0  0  0  0  0  0  0  0  0  0
    5.8243   -3.0391   -1.4595 C   0  0  0  0  0  0  0  0  0  0  0  0
    6.4067   -3.2265   -0.0786 C   0  0  0  0  0  0  0  0  0  0  0  0
    5.5694   -3.3564    1.0397 C   0  0  0  0  0  0  0  0  0  0  0  0
    6.1179   -3.4932    2.3138 C   0  0  0  0  0  0  0  0  0  0  0  0
    7.4912   -3.5045    2.5080 C   0  0  0  0  0  0  0  0  0  0  0  0
    8.3197   -3.3755    1.4029 C   0  0  0  0  0  0  0  0  0  0  0  0
    7.7955   -3.2360    0.1182 C   0  0  0  0  0  0  0  0  0  0  0  0
    9.6485   -3.3828    1.5708 F   0  0  0  0  0  0  0  0  0  0  0  0
    5.3011   -3.6120    3.3687 F   0  0  0  0  0  0  0  0  0  0  0  0
   -6.5353   -3.1199    3.7546 C   0  0  0  0  0  0  0  0  0  0  0  0
   -1.2648   -1.2069    2.1581 H   0  0  0  0  0  0  0  0  0  0  0  0
   -3.9604    0.7434   -0.5516 H   0  0  0  0  0  0  0  0  0  0  0  0
    0.6085   -0.0597    1.1368 H   0  0  0  0  0  0  0  0  0  0  0  0
   -2.8316   -2.8790    1.6194 H   0  0  0  0  0  0  0  0  0  0  0  0
   -3.4283   -2.2024    3.1482 H   0  0  0  0  0  0  0  0  0  0  0  0
   -4.7489   -4.2007    2.3703 H   0  0  0  0  0  0  0  0  0  0  0  0
   -5.0736   -3.3974    0.8556 H   0  0  0  0  0  0  0  0  0  0  0  0
   -5.7334   -0.7763    3.3821 H   0  0  0  0  0  0  0  0  0  0  0  0
   -7.1426   -0.7493    2.3165 H   0  0  0  0  0  0  0  0  0  0  0  0
   -5.2918    0.5353    1.3690 H   0  0  0  0  0  0  0  0  0  0  0  0
   -5.6210   -0.8613    0.3188 H   0  0  0  0  0  0  0  0  0  0  0  0
   -1.2587    2.7171   -2.0195 H   0  0  0  0  0  0  0  0  0  0  0  0
   -4.1968    2.5787   -1.5924 H   0  0  0  0  0  0  0  0  0  0  0  0
   -4.4865    3.9424   -3.3291 H   0  0  0  0  0  0  0  0  0  0  0  0
   -2.9775    3.2520   -3.9261 H   0  0  0  0  0  0  0  0  0  0  0  0
   -1.7335    5.1878   -2.8414 H   0  0  0  0  0  0  0  0  0  0  0  0
   -2.9094    5.7178   -4.0429 H   0  0  0  0  0  0  0  0  0  0  0  0
   -3.6852    6.1345   -0.0765 H   0  0  0  0  0  0  0  0  0  0  0  0
   -4.9068    5.2119   -0.9507 H   0  0  0  0  0  0  0  0  0  0  0  0
   -3.3687    3.7100    0.3399 H   0  0  0  0  0  0  0  0  0  0  0  0
   -1.9904    4.3910   -0.5185 H   0  0  0  0  0  0  0  0  0  0  0  0
    1.6043   -0.1338   -0.8744 H   0  0  0  0  0  0  0  0  0  0  0  0
    4.9462    3.1579   -2.8549 H   0  0  0  0  0  0  0  0  0  0  0  0
    3.4883   -1.6637   -1.0661 H   0  0  0  0  0  0  0  0  0  0  0  0
    7.5122   -1.1935   -2.5654 H   0  0  0  0  0  0  0  0  0  0  0  0
    7.0801    1.1935   -3.0673 H   0  0  0  0  0  0  0  0  0  0  0  0
    4.9058   -3.6347   -1.5536 H   0  0  0  0  0  0  0  0  0  0  0  0
    6.5054   -3.4596   -2.2110 H   0  0  0  0  0  0  0  0  0  0  0  0
    4.4883   -3.3467    0.9343 H   0  0  0  0  0  0  0  0  0  0  0  0
    7.9093   -3.6072    3.5024 H   0  0  0  0  0  0  0  0  0  0  0  0
    8.4817   -3.1297   -0.7176 H   0  0  0  0  0  0  0  0  0  0  0  0
   -7.4824   -2.6891    4.0951 H   0  0  0  0  0  0  0  0  0  0  0  0
   -5.7649   -2.8876    4.4978 H   0  0  0  0  0  0  0  0  0  0  0  0
   -6.6743   -4.2066    3.7317 H   0  0  0  0  0  0  0  0  0  0  0  0
  1  2  2  0
  1  6  1  0
  2  3  1  0
  3  4  2  0
  4  5  1  0
  5  6  2  0
  2  7  1  0
  7  8  1  0
 12  7  1  0
  8  9  1  0
  9 10  1  0
 10 11  1  0
 11 12  1  0
  4 13  1  0
 13 14  1  0
 14 15  1  0
 19 14  1  0
 15 16  1  0
 16 17  1  0
 17 18  1  0
 18 19  1  0
  5 20  1  0
 20 21  1  0
 20 22  2  0
 21 23  1  0
 23 24  2  0
 23 27  1  0
 24 25  1  0
 25 26  1  0
 31 26  2  0
 26 27  1  0
 27 28  2  0
 28 29  1  0
 29 30  2  0
 30 31  1  0
 29 32  1  0
 32 33  1  0
 33 34  2  0
 33 38  1  0
 34 35  1  0
 35 36  2  0
 36 37  1  0
 37 38  2  0
 37 39  1  0
 35 40  1  0
 10 41  1  0
  1 42  1  0
  3 43  1  0
  6 44  1  0
  8 45  1  0
  8 46  1  0
  9 47  1  0
  9 48  1  0
 11 49  1  0
 11 50  1  0
 12 51  1  0
 12 52  1  0
 13 53  1  0
 14 54  1  0
 15 55  1  0
 15 56  1  0
 16 57  1  0
 16 58  1  0
 18 59  1  0
 18 60  1  0
 19 61  1  0
 19 62  1  0
 21 63  1  0
 25 64  1  0
 28 65  1  0
 30 66  1  0
 31 67  1  0
 32 68  1  0
 32 69  1  0
 34 70  1  0
 36 71  1  0
 38 72  1  0
 41 73  1  0
 41 74  1  0
 41 75  1  0
M  END
$$$$
