
     RDKit          3D

 75 80  0  0  0  0  0  0  0  0999 V2000
   -1.5584   -1.8539   -0.8078 C   0  0  0  0  0  0  0  0  0  0  0  0
   -2.5065   -1.2177    0.0027 C   0  0  0  0  0  0  0  0  0  0  0  0
   -2.4380    0.1845    0.1071 C   0  0  0  0  0  0  0  0  0  0  0  0
   -1.4896    0.9652   -0.5792 C   0  0  0  0  0  0  0  0  0  0  0  0
   -0.5157    0.2678   -1.3315 C   0  0  0  0  0  0  0  0  0  0  0  0
   -0.5681   -1.1278   -1.4665 C   0  0  0  0  0  0  0  0  0  0  0  0
   -3.4806   -1.9971    0.6474 N   0  0  0  0  0  0  0  0  0  0  0  0
   -4.4089   -2.6439   -0.3178 C   0  0  0  0  0  0  0  0  0  0  0  0
   -5.7294   -3.0732    0.3632 C   0  0  0  0  0  0  0  0  0  0  0  0
   -6.4767   -1.9412    0.9570 N   0  0  0  0  0  0  0  0  0  0  0  0
   -5.5621   -0.9534    1.5736 C   0  0  0  0  0  0  0  0  0  0  0  0
   -4.1384   -1.4778    1.8679 C   0  0  0  0  0  0  0  0  0  0  0  0
   -1.4062    2.3577   -0.4345 N   0  0  0  0  0  0  0  0  0  0  0  0
   -2.5147    3.2596   -0.0955 C   0  0  0  0  0  0  0  0  0  0  0  0
   -2.8190    3.2789    1.4047 C   0  0  0  0  0  0  0  0  0  0  0  0
   -4.3062    3.4771    1.6571 C   0  0  0  0  0  0  0  0  0  0  0  0
   -4.8155    4.4717    0.7758 O   0  0  0  0  0  0  0  0  0  0  0  0
   -4.8406    4.0613   -0.5925 C   0  0  0  0  0  0  0  0  0  0  0  0
   -3.7532    3.0563   -0.9637 C   0  0  0  0  0  0  0  0  0  0  0  0
    0.5639    1.0138   -2.0444 C   0  0  0  0  0  0  0  0  0  0  0  0
    1.8167    0.4520   -1.9120 N   0  0  0  0  0  0  0  0  0  0  0  0
    0.2547    2.0412   -2.6371 O   0  0  0  0  0  0  0  0  0  0  0  0
    2.9759    0.9389   -2.4858 C   0  0  0  0  0  0  0  0  0  0  0  0
    3.0461    1.9955   -3.2966 N   0  0  0  0  0  0  0  0  0  0  0  0
    4.3448    2.1035   -3.5991 N   0  0  0  0  0  0  0  0  0  0  0  0
    5.1354    1.1402   -3.0355 C   0  0  0  0  0  0  0  0  0  0  0  0
    4.2661    0.3531   -2.2911 C   0  0  0  0  0  0  0  0  0  0  0  0
    4.7915   -0.7435   -1.5752 C   0  0  0  0  0  0  0  0  0  0  0  0
    6.1729   -1.0153   -1.6338 C   0  0  0  0  0  0  0  0  0  0  0  0
    7.0113   -0.1884   -2.3955 C   0  0  0  0  0  0  0  0  0  0  0  0
    6.5104    0.9051   -3.1112 C   0  0  0  0  0  0  0  0  0  0  0  0
    6.7502   -2.1752   -0.8522 C   0  0  0  0  0  0  0  0  0  0  0  0
    7.0200   -1.8419    0.5962 C   0  0  0  0  0  0  0  0  0  0  0  0
    8.2136   -1.2086    0.9743 C   0  0  0  0  0  0  0  0  0  0  0  0
    8.4396   -0.8807    2.3097 C   0  0  0  0  0  0  0  0  0  0  0  0
    7.4996   -1.1650    3.2888 C   0  0  0  0  0  0  0  0  0  0  0  0
    6.3186   -1.7881    2.9147 C   0  0  0  0  0  0  0  0  0  0  0  0
    6.0694   -2.1282    1.5868 C   0  0  0  0  0  0  0  0  0  0  0  0
    5.3971   -2.0678    3.8453 F   0  0  0  0  0  0  0  0  0  0  0  0
    9.5862   -0.2783    2.6521 F   0  0  0  0  0  0  0  0  0  0  0  0
   -7.4761   -2.4260    1.9043 C   0  0  0  0  0  0  0  0  0  0  0  0
   -1.5779   -2.9362   -0.9118 H   0  0  0  0  0  0  0  0  0  0  0  0
   -3.1734    0.6870    0.7195 H   0  0  0  0  0  0  0  0  0  0  0  0
    0.1397   -1.6561   -2.0993 H   0  0  0  0  0  0  0  0  0  0  0  0
   -4.6492   -1.9602   -1.1449 H   0  0  0  0  0  0  0  0  0  0  0  0
   -3.9295   -3.5336   -0.7440 H   0  0  0  0  0  0  0  0  0  0  0  0
   -6.3680   -3.5656   -0.3798 H   0  0  0  0  0  0  0  0  0  0  0  0
   -5.4919   -3.8214    1.1333 H   0  0  0  0  0  0  0  0  0  0  0  0
   -5.4856   -0.1132    0.8718 H   0  0  0  0  0  0  0  0  0  0  0  0
   -5.9908   -0.5345    2.4934 H   0  0  0  0  0  0  0  0  0  0  0  0
   -3.5381   -0.7131    2.3745 H   0  0  0  0  0  0  0  0  0  0  0  0
   -4.2081   -2.3056    2.5865 H   0  0  0  0  0  0  0  0  0  0  0  0
   -0.8631    2.7446   -1.2230 H   0  0  0  0  0  0  0  0  0  0  0  0
   -2.1427    4.2662   -0.3363 H   0  0  0  0  0  0  0  0  0  0  0  0
   -2.2696    4.1217    1.8460 H   0  0  0  0  0  0  0  0  0  0  0  0
   -2.4616    2.3919    1.9374 H   0  0  0  0  0  0  0  0  0  0  0  0
   -4.4677    3.8168    2.6850 H   0  0  0  0  0  0  0  0  0  0  0  0
   -4.8695    2.5449    1.5306 H   0  0  0  0  0  0  0  0  0  0  0  0
   -5.8303    3.6480   -0.8134 H   0  0  0  0  0  0  0  0  0  0  0  0
   -4.7317    4.9689   -1.1951 H   0  0  0  0  0  0  0  0  0  0  0  0
   -4.1645    2.0501   -0.8293 H   0  0  0  0  0  0  0  0  0  0  0  0
   -3.5133    3.1371   -2.0303 H   0  0  0  0  0  0  0  0  0  0  0  0
    1.9325   -0.3343   -1.2925 H   0  0  0  0  0  0  0  0  0  0  0  0
    4.6301    2.8641   -4.2050 H   0  0  0  0  0  0  0  0  0  0  0  0
    4.1353   -1.3719   -0.9812 H   0  0  0  0  0  0  0  0  0  0  0  0
    8.0811   -0.3889   -2.4378 H   0  0  0  0  0  0  0  0  0  0  0  0
    7.1681    1.5405   -3.6953 H   0  0  0  0  0  0  0  0  0  0  0  0
    6.0674   -3.0329   -0.9182 H   0  0  0  0  0  0  0  0  0  0  0  0
    7.6784   -2.5215   -1.3260 H   0  0  0  0  0  0  0  0  0  0  0  0
    8.9737   -0.9594    0.2388 H   0  0  0  0  0  0  0  0  0  0  0  0
    7.6819   -0.9019    4.3233 H   0  0  0  0  0  0  0  0  0  0  0  0
    5.1281   -2.6102    1.3389 H   0  0  0  0  0  0  0  0  0  0  0  0
   -7.0202   -2.9218    2.7693 H   0  0  0  0  0  0  0  0  0  0  0  0
   -8.1563   -3.1335    1.4184 H   0  0  0  0  0  0  0  0  0  0  0  0
   -8.0934   -1.5962    2.2674 H   0  0  0  0  0  0  0  0  0  0  0  0
  1  2  2  0
  1  6  1  0
  2  3  1  0
  3  4  2  0
  4  5  1  0
  5  6  2  0
  2  7  1  0
  7  8  1  0
 12  7  1  0
  8  9  1  0
  9 10  1  0
 10 11  1  0
 11 12  1  0
  4 13  1  0
 13 14  1  0
 14 15  1  0
 19 14  1  0
 15 16  1  0
 16 17  1  0
 17 18  1  0
 18 19  1  0
  5 20  1  0
 20 21  1  0
 20 22  2  0
 21 23  1  0
 23 24  2  0
 23 27  1  0
 24 25  1  0
 25 26  1  0
 31 26  2  0
 26 27  1  0
 27 28  2  0
 28 29  1  0
 29 30  2  0
 30 31  1  0
 29 32  1  0
 32 33  1  0
 33 34  2  0
 33 38  1  0
 34 35  1  0
 35 36  2  0
 36 37  1  0
 37 38  2  0
 37 39  1  0
 35 40  1  0
 10 41  1  0
  1 42  1  0
  3 43  1  0
  6 44  1  0
  8 45  1  0
  8 46  1  0
  9 47  1  0
  9 48  1  0
 11 49  1  0
 11 50  1  0
 12 51  1  0
 12 52  1  0
 13 53  1  0
 14 54  1  0
 15 55  1  0
 15 56  1  0
 16 57  1  0
 16 58  1  0
 18 59  1  0
 18 60  1  0
 19 61  1  0
 19 62  1  0
 21 63  1  0
 25 64  1  0
 28 65  1  0
 30 66  1  0
 31 67  1  0
 32 68  1  0
 32 69  1  0
 34 70  1  0
 36 71  1  0
 38 72  1  0
 41 73  1  0
 41 74  1  0
 41 75  1  0
M  END
$$$$
