
     RDKit          3D

 93 90  0  0  0  0  0  0  0  0999 V2000
   -0.0413    0.3956    0.0000 O   0  0  0  0  0  0  0  0  0  0  0  0
    0.0767    0.1183    0.5354 C   0  0  0  0  0  0  0  0  0  0  0  0
   -1.1863   -0.7070    0.2722 C   0  0  0  0  0  0  0  0  0  0  0  0
    1.3192   -0.7607    0.7102 C   0  0  0  0  0  0  0  0  0  0  0  0
    0.3377    1.0947   -0.6260 C   0  0  0  0  0  0  0  0  0  0  0  0
    1.6706   -1.5339   -0.5258 C   0  0  0  0  0  0  0  0  0  0  0  0
   -2.4604    0.0786    0.4070 C   0  0  0  0  0  0  0  0  0  0  0  0
    0.3107    0.8531   -1.8204 O   0  0  0  0  0  0  0  0  0  0  0  0
   -3.4878   -0.3175    0.9343 O   0  0  0  0  0  0  0  0  0  0  0  0
    1.0586   -2.4874   -0.9749 O   0  0  0  0  0  0  0  0  0  0  0  0
   -0.0850    0.8125    1.7876 O   0  0  0  0  0  0  0  0  0  0  0  0
    0.6661    2.3297   -0.1756 O   0  0  0  0  0  0  0  0  0  0  0  0
   -2.4401    1.2781   -0.2000 O   0  0  0  0  0  0  0  0  0  0  0  0
    2.7624   -1.0535   -1.1465 O   0  0  0  0  0  0  0  0  0  0  0  0
   -0.5811    1.3625    0.1159 N   0  0  0  0  0  0  0  0  0  0  0  0
    0.5812   -1.3628   -0.1161 N   0  0  0  0  0  0  0  0  0  0  0  0
   -1.3380    0.2301   -0.4458 C   0  0  0  0  0  0  0  0  0  0  0  0
   -0.8605   -1.1375    0.0880 C   0  0  0  0  0  0  0  0  0  0  0  0
    0.8608    1.1377   -0.0876 C   0  0  0  0  0  0  0  0  0  0  0  0
    1.3385   -0.2303    0.4453 C   0  0  0  0  0  0  0  0  0  0  0  0
    0.1033    0.2320    0.1902 C   0  0  0  0  0  0  0  0  0  0  0  0
   -0.6229   -0.7768   -0.7068 C   0  0  0  0  0  0  0  0  0  0  0  0
    1.4744    0.6569   -0.3535 C   0  0  0  0  0  0  0  0  0  0  0  0
   -0.7385    1.5173    0.2946 C   0  0  0  0  0  0  0  0  0  0  0  0
    2.4212   -0.4906   -0.5496 C   0  0  0  0  0  0  0  0  0  0  0  0
   -2.0889   -0.8792   -0.3940 C   0  0  0  0  0  0  0  0  0  0  0  0
   -0.8171    2.4059   -0.5376 O   0  0  0  0  0  0  0  0  0  0  0  0
   -3.0080   -0.6301   -1.1537 O   0  0  0  0  0  0  0  0  0  0  0  0
    2.2034   -1.5180   -1.1703 O   0  0  0  0  0  0  0  0  0  0  0  0
    0.3215   -0.3388    1.4887 O   0  0  0  0  0  0  0  0  0  0  0  0
   -1.4653    1.5830    1.4316 O   0  0  0  0  0  0  0  0  0  0  0  0
   -2.3300   -1.3111    0.8592 O   0  0  0  0  0  0  0  0  0  0  0  0
    3.6360   -0.2635   -0.0151 O   0  0  0  0  0  0  0  0  0  0  0  0
   -0.8334    1.2177    0.1748 N   0  0  0  0  0  0  0  0  0  0  0  0
    0.8336   -1.2177   -0.1744 N   0  0  0  0  0  0  0  0  0  0  0  0
   -1.4226   -0.1081   -0.0834 C   0  0  0  0  0  0  0  0  0  0  0  0
   -0.5249   -1.2696    0.3940 C   0  0  0  0  0  0  0  0  0  0  0  0
    0.5248    1.2697   -0.3943 C   0  0  0  0  0  0  0  0  0  0  0  0
    1.4227    0.1081    0.0834 C   0  0  0  0  0  0  0  0  0  0  0  0
    1.0458    0.9647    0.4288 N   0  0  0  0  0  0  0  0  0  0  0  0
   -1.0455   -0.9647   -0.4288 N   0  0  0  0  0  0  0  0  0  0  0  0
   -0.3463    1.3753    0.1751 C   0  0  0  0  0  0  0  0  0  0  0  0
   -1.3597    0.2281    0.3771 C   0  0  0  0  0  0  0  0  0  0  0  0
    1.3593   -0.2283   -0.3771 C   0  0  0  0  0  0  0  0  0  0  0  0
    0.3465   -1.3758   -0.1743 C   0  0  0  0  0  0  0  0  0  0  0  0
   -0.7386   -0.2771    0.0000 H   0  0  0  0  0  0  0  0  0  0  0  0
    0.7799   -0.1185    0.0000 H   0  0  0  0  0  0  0  0  0  0  0  0
   -1.1872   -1.1625   -0.7237 H   0  0  0  0  0  0  0  0  0  0  0  0
   -1.2479   -1.5137    1.0144 H   0  0  0  0  0  0  0  0  0  0  0  0
    2.1806   -0.1464    1.0041 H   0  0  0  0  0  0  0  0  0  0  0  0
    1.1896   -1.4733    1.5339 H   0  0  0  0  0  0  0  0  0  0  0  0
    0.2336    1.7254    1.6295 H   0  0  0  0  0  0  0  0  0  0  0  0
    0.7901    2.8507   -0.9992 H   0  0  0  0  0  0  0  0  0  0  0  0
   -3.3487    1.6205   -0.0548 H   0  0  0  0  0  0  0  0  0  0  0  0
    2.8474   -1.6057   -1.9530 H   0  0  0  0  0  0  0  0  0  0  0  0
   -0.7531    1.3816    1.1221 H   0  0  0  0  0  0  0  0  0  0  0  0
    0.7525   -1.3820   -1.1224 H   0  0  0  0  0  0  0  0  0  0  0  0
   -1.2586    0.2512   -1.5396 H   0  0  0  0  0  0  0  0  0  0  0  0
   -2.3986    0.3624   -0.2053 H   0  0  0  0  0  0  0  0  0  0  0  0
   -1.0898   -1.2195    1.1577 H   0  0  0  0  0  0  0  0  0  0  0  0
   -1.4158   -1.9367   -0.4151 H   0  0  0  0  0  0  0  0  0  0  0  0
    1.0898    1.2215   -1.1573 H   0  0  0  0  0  0  0  0  0  0  0  0
    1.4154    1.9367    0.4167 H   0  0  0  0  0  0  0  0  0  0  0  0
    2.3990   -0.3629    0.2042 H   0  0  0  0  0  0  0  0  0  0  0  0
    1.2586   -0.2520    1.5392 H   0  0  0  0  0  0  0  0  0  0  0  0
   -0.5417   -0.4799   -1.7595 H   0  0  0  0  0  0  0  0  0  0  0  0
   -0.2116   -1.7870   -0.6079 H   0  0  0  0  0  0  0  0  0  0  0  0
    1.3900    1.1763   -1.3153 H   0  0  0  0  0  0  0  0  0  0  0  0
    1.9368    1.3625    0.3496 H   0  0  0  0  0  0  0  0  0  0  0  0
   -0.5648   -0.4508    1.8912 H   0  0  0  0  0  0  0  0  0  0  0  0
   -1.9337    2.4434    1.3679 H   0  0  0  0  0  0  0  0  0  0  0  0
   -3.3085   -1.3746    0.9062 H   0  0  0  0  0  0  0  0  0  0  0  0
    4.1444   -1.0770   -0.2159 H   0  0  0  0  0  0  0  0  0  0  0  0
   -0.7503    1.3285    1.1864 H   0  0  0  0  0  0  0  0  0  0  0  0
    0.7504   -1.3284   -1.1859 H   0  0  0  0  0  0  0  0  0  0  0  0
   -1.6230   -0.2096   -1.1573 H   0  0  0  0  0  0  0  0  0  0  0  0
   -2.3916   -0.1668    0.4247 H   0  0  0  0  0  0  0  0  0  0  0  0
   -0.9868   -2.2231    0.1141 H   0  0  0  0  0  0  0  0  0  0  0  0
   -0.4565   -1.2617    1.4888 H   0  0  0  0  0  0  0  0  0  0  0  0
    0.4567    1.2618   -1.4892 H   0  0  0  0  0  0  0  0  0  0  0  0
    0.9867    2.2229   -0.1145 H   0  0  0  0  0  0  0  0  0  0  0  0
    2.3917    0.1669   -0.4245 H   0  0  0  0  0  0  0  0  0  0  0  0
    1.6225    0.2095    1.1574 H   0  0  0  0  0  0  0  0  0  0  0  0
    1.1175    0.7022    1.4128 H   0  0  0  0  0  0  0  0  0  0  0  0
   -1.1162   -0.7011   -1.4127 H   0  0  0  0  0  0  0  0  0  0  0  0
   -0.4250    1.7651   -0.8472 H   0  0  0  0  0  0  0  0  0  0  0  0
   -0.5971    2.2031    0.8474 H   0  0  0  0  0  0  0  0  0  0  0  0
   -2.3623    0.5791    0.1090 H   0  0  0  0  0  0  0  0  0  0  0  0
   -1.3973   -0.0532    1.4367 H   0  0  0  0  0  0  0  0  0  0  0  0
    2.3624   -0.5790   -0.1106 H   0  0  0  0  0  0  0  0  0  0  0  0
    1.3952    0.0534   -1.4367 H   0  0  0  0  0  0  0  0  0  0  0  0
    0.5970   -2.2028   -0.8477 H   0  0  0  0  0  0  0  0  0  0  0  0
    0.4258   -1.7661    0.8482 H   0  0  0  0  0  0  0  0  0  0  0  0
  3  2  1  0
  4  2  1  0
  5  2  1  0
  6  4  1  0
  7  3  1  0
  8  5  2  0
  9  7  2  0
 10  6  2  0
 11  2  1  0
 12  5  1  0
 13  7  1  0
 14  6  1  0
 16 20  1  0
 17 15  1  0
 18 17  1  0
 19 15  1  0
 20 19  1  0
 16 18  1  0
 22 21  1  0
 23 21  1  0
 24 21  1  0
 25 23  1  0
 26 22  1  0
 27 24  2  0
 28 26  2  0
 29 25  2  0
 30 21  1  0
 31 24  1  0
 32 26  1  0
 33 25  1  0
 35 39  1  0
 36 34  1  0
 37 36  1  0
 38 34  1  0
 39 38  1  0
 35 37  1  0
 41 45  1  0
 42 40  1  0
 43 42  1  0
 44 40  1  0
 45 44  1  0
 41 43  1  0
  1 46  1  0
  1 47  1  0
  3 48  1  0
  3 49  1  0
  4 50  1  0
  4 51  1  0
 11 52  1  0
 12 53  1  0
 13 54  1  0
 14 55  1  0
 15 56  1  0
 16 57  1  0
 17 58  1  0
 17 59  1  0
 18 60  1  0
 18 61  1  0
 19 62  1  0
 19 63  1  0
 20 64  1  0
 20 65  1  0
 22 66  1  0
 22 67  1  0
 23 68  1  0
 23 69  1  0
 30 70  1  0
 31 71  1  0
 32 72  1  0
 33 73  1  0
 34 74  1  0
 35 75  1  0
 36 76  1  0
 36 77  1  0
 37 78  1  0
 37 79  1  0
 38 80  1  0
 38 81  1  0
 39 82  1  0
 39 83  1  0
 40 84  1  0
 41 85  1  0
 42 86  1  0
 42 87  1  0
 43 88  1  0
 43 89  1  0
 44 90  1  0
 44 91  1  0
 45 92  1  0
 45 93  1  0
M  END
$$$$
