
     RDKit          3D

 93 90  0  0  0  0  0  0  0  0999 V2000
   -0.0181    0.3973    0.0000 O   0  0  0  0  0  0  0  0  0  0  0  0
   -0.1272   -0.2498   -0.0102 C   0  0  0  0  0  0  0  0  0  0  0  0
    0.9272   -1.1727    0.6249 C   0  0  0  0  0  0  0  0  0  0  0  0
   -1.4629   -0.4433    0.7193 C   0  0  0  0  0  0  0  0  0  0  0  0
    0.3421    1.2061    0.1616 C   0  0  0  0  0  0  0  0  0  0  0  0
   -2.6201    0.2349    0.0419 C   0  0  0  0  0  0  0  0  0  0  0  0
    2.3311   -0.8677    0.1790 C   0  0  0  0  0  0  0  0  0  0  0  0
    0.4356    1.8158    1.2144 O   0  0  0  0  0  0  0  0  0  0  0  0
    3.3050   -0.7586    0.9032 O   0  0  0  0  0  0  0  0  0  0  0  0
   -3.6993   -0.2783   -0.2072 O   0  0  0  0  0  0  0  0  0  0  0  0
   -0.3134   -0.6533   -1.3697 O   0  0  0  0  0  0  0  0  0  0  0  0
    0.7248    1.7770   -1.0005 O   0  0  0  0  0  0  0  0  0  0  0  0
    2.4603   -0.7706   -1.1575 O   0  0  0  0  0  0  0  0  0  0  0  0
   -2.4242    1.5422   -0.2037 O   0  0  0  0  0  0  0  0  0  0  0  0
   -0.1793   -1.3263    0.7455 N   0  0  0  0  0  0  0  0  0  0  0  0
    0.1292    1.1742   -0.8227 N   0  0  0  0  0  0  0  0  0  0  0  0
   -1.3378   -0.5598    0.2497 C   0  0  0  0  0  0  0  0  0  0  0  0
   -1.0264    0.9400    0.0539 C   0  0  0  0  0  0  0  0  0  0  0  0
    0.9553   -1.1066   -0.1710 C   0  0  0  0  0  0  0  0  0  0  0  0
    1.2856    0.3888   -0.3696 C   0  0  0  0  0  0  0  0  0  0  0  0
    0.1033   -0.0670   -0.5999 C   0  0  0  0  0  0  0  0  0  0  0  0
   -1.0815   -0.9926   -0.8968 C   0  0  0  0  0  0  0  0  0  0  0  0
    1.0039   -0.6310    0.5056 C   0  0  0  0  0  0  0  0  0  0  0  0
   -0.4123    1.3281   -0.2009 C   0  0  0  0  0  0  0  0  0  0  0  0
    2.1704    0.2708    0.8105 C   0  0  0  0  0  0  0  0  0  0  0  0
   -2.2172   -0.8628    0.0725 C   0  0  0  0  0  0  0  0  0  0  0  0
   -0.8253    1.6715    0.8937 O   0  0  0  0  0  0  0  0  0  0  0  0
   -3.2488   -0.2404   -0.1151 O   0  0  0  0  0  0  0  0  0  0  0  0
    2.3688    1.4027    0.4037 O   0  0  0  0  0  0  0  0  0  0  0  0
    0.8780   -0.0269   -1.8147 O   0  0  0  0  0  0  0  0  0  0  0  0
   -0.3848    2.1901   -1.2431 O   0  0  0  0  0  0  0  0  0  0  0  0
   -1.9986   -1.5127    1.2279 O   0  0  0  0  0  0  0  0  0  0  0  0
    3.0419   -0.3096    1.6601 O   0  0  0  0  0  0  0  0  0  0  0  0
   -0.4925    1.3160   -0.5927 N   0  0  0  0  0  0  0  0  0  0  0  0
    0.5443   -1.2771    0.6193 N   0  0  0  0  0  0  0  0  0  0  0  0
   -1.1979    0.0280   -0.6830 C   0  0  0  0  0  0  0  0  0  0  0  0
   -0.8832   -0.9553    0.4633 C   0  0  0  0  0  0  0  0  0  0  0  0
    0.7753    1.1899    0.1482 C   0  0  0  0  0  0  0  0  0  0  0  0
    1.4042   -0.2145    0.0690 C   0  0  0  0  0  0  0  0  0  0  0  0
    0.7645   -1.2743   -0.0167 N   0  0  0  0  0  0  0  0  0  0  0  0
   -0.7637    1.2745    0.0168 N   0  0  0  0  0  0  0  0  0  0  0  0
    1.4281    0.0411   -0.0456 C   0  0  0  0  0  0  0  0  0  0  0  0
    0.5823    1.1571    0.6049 C   0  0  0  0  0  0  0  0  0  0  0  0
   -0.5820   -1.1573   -0.6037 C   0  0  0  0  0  0  0  0  0  0  0  0
   -1.4281   -0.0405    0.0452 C   0  0  0  0  0  0  0  0  0  0  0  0
    0.7719   -0.1639    0.0000 H   0  0  0  0  0  0  0  0  0  0  0  0
   -0.7538   -0.2333    0.0000 H   0  0  0  0  0  0  0  0  0  0  0  0
    0.9136   -1.0630    1.7169 H   0  0  0  0  0  0  0  0  0  0  0  0
    0.7296   -2.2245    0.3872 H   0  0  0  0  0  0  0  0  0  0  0  0
   -1.4236   -0.0902    1.7562 H   0  0  0  0  0  0  0  0  0  0  0  0
   -1.7101   -1.5128    0.7440 H   0  0  0  0  0  0  0  0  0  0  0  0
    0.5047   -0.3953   -1.8438 H   0  0  0  0  0  0  0  0  0  0  0  0
    0.9523    2.6969   -0.7492 H   0  0  0  0  0  0  0  0  0  0  0  0
    3.4225   -0.6219   -1.2928 H   0  0  0  0  0  0  0  0  0  0  0  0
   -3.2681    1.8291   -0.6139 H   0  0  0  0  0  0  0  0  0  0  0  0
    0.0773   -0.9524    1.6586 H   0  0  0  0  0  0  0  0  0  0  0  0
    0.3654    2.1648   -0.8209 H   0  0  0  0  0  0  0  0  0  0  0  0
   -2.1604   -0.6670    0.9651 H   0  0  0  0  0  0  0  0  0  0  0  0
   -1.6836   -0.9969   -0.6955 H   0  0  0  0  0  0  0  0  0  0  0  0
   -0.8427    1.4065    1.0301 H   0  0  0  0  0  0  0  0  0  0  0  0
   -1.9030    1.4347   -0.3787 H   0  0  0  0  0  0  0  0  0  0  0  0
    0.7340   -1.5728   -1.1391 H   0  0  0  0  0  0  0  0  0  0  0  0
    1.8356   -1.6196    0.2329 H   0  0  0  0  0  0  0  0  0  0  0  0
    1.6632    0.8086    0.5714 H   0  0  0  0  0  0  0  0  0  0  0  0
    2.0877    0.4840   -1.1097 H   0  0  0  0  0  0  0  0  0  0  0  0
   -1.4895   -0.7722   -1.8929 H   0  0  0  0  0  0  0  0  0  0  0  0
   -0.7696   -2.0428   -0.9521 H   0  0  0  0  0  0  0  0  0  0  0  0
    1.4142   -1.5975    0.1872 H   0  0  0  0  0  0  0  0  0  0  0  0
    0.4496   -0.7646    1.4401 H   0  0  0  0  0  0  0  0  0  0  0  0
    0.7606    0.8766   -2.1777 H   0  0  0  0  0  0  0  0  0  0  0  0
   -0.7117    3.0334   -0.8596 H   0  0  0  0  0  0  0  0  0  0  0  0
   -2.7944   -1.3176    1.7689 H   0  0  0  0  0  0  0  0  0  0  0  0
    3.7430    0.3648    1.7825 H   0  0  0  0  0  0  0  0  0  0  0  0
   -1.0791    1.9911   -0.1032 H   0  0  0  0  0  0  0  0  0  0  0  0
    0.7553   -2.1450    0.1270 H   0  0  0  0  0  0  0  0  0  0  0  0
   -0.9333   -0.4405   -1.6392 H   0  0  0  0  0  0  0  0  0  0  0  0
   -2.2774    0.2155   -0.7200 H   0  0  0  0  0  0  0  0  0  0  0  0
   -1.4430   -1.8852    0.3122 H   0  0  0  0  0  0  0  0  0  0  0  0
   -1.2418   -0.5287    1.4083 H   0  0  0  0  0  0  0  0  0  0  0  0
    0.5992    1.4427    1.2016 H   0  0  0  0  0  0  0  0  0  0  0  0
    1.4807    1.9315   -0.2425 H   0  0  0  0  0  0  0  0  0  0  0  0
    1.6331   -0.4458   -0.9793 H   0  0  0  0  0  0  0  0  0  0  0  0
    2.3560   -0.2226    0.6112 H   0  0  0  0  0  0  0  0  0  0  0  0
    0.6539   -1.5446    0.9617 H   0  0  0  0  0  0  0  0  0  0  0  0
   -0.6527    1.5445   -0.9615 H   0  0  0  0  0  0  0  0  0  0  0  0
    2.3880   -0.0379    0.4772 H   0  0  0  0  0  0  0  0  0  0  0  0
    1.6554    0.3055   -1.0858 H   0  0  0  0  0  0  0  0  0  0  0  0
    0.4889    0.9726    1.6823 H   0  0  0  0  0  0  0  0  0  0  0  0
    1.1003    2.1162    0.4925 H   0  0  0  0  0  0  0  0  0  0  0  0
   -0.4892   -0.9744   -1.6814 H   0  0  0  0  0  0  0  0  0  0  0  0
   -1.0997   -2.1165   -0.4903 H   0  0  0  0  0  0  0  0  0  0  0  0
   -1.6596   -0.3046    1.0848 H   0  0  0  0  0  0  0  0  0  0  0  0
   -2.3866    0.0387   -0.4804 H   0  0  0  0  0  0  0  0  0  0  0  0
  3  2  1  0
  4  2  1  0
  5  2  1  0
  6  4  1  0
  7  3  1  0
  8  5  2  0
  9  7  2  0
 10  6  2  0
 11  2  1  0
 12  5  1  0
 13  7  1  0
 14  6  1  0
 16 20  1  0
 17 15  1  0
 18 17  1  0
 19 15  1  0
 20 19  1  0
 16 18  1  0
 22 21  1  0
 23 21  1  0
 24 21  1  0
 25 23  1  0
 26 22  1  0
 27 24  2  0
 28 26  2  0
 29 25  2  0
 30 21  1  0
 31 24  1  0
 32 26  1  0
 33 25  1  0
 35 39  1  0
 36 34  1  0
 37 36  1  0
 38 34  1  0
 39 38  1  0
 35 37  1  0
 41 45  1  0
 42 40  1  0
 43 42  1  0
 44 40  1  0
 45 44  1  0
 41 43  1  0
  1 46  1  0
  1 47  1  0
  3 48  1  0
  3 49  1  0
  4 50  1  0
  4 51  1  0
 11 52  1  0
 12 53  1  0
 13 54  1  0
 14 55  1  0
 15 56  1  0
 16 57  1  0
 17 58  1  0
 17 59  1  0
 18 60  1  0
 18 61  1  0
 19 62  1  0
 19 63  1  0
 20 64  1  0
 20 65  1  0
 22 66  1  0
 22 67  1  0
 23 68  1  0
 23 69  1  0
 30 70  1  0
 31 71  1  0
 32 72  1  0
 33 73  1  0
 34 74  1  0
 35 75  1  0
 36 76  1  0
 36 77  1  0
 37 78  1  0
 37 79  1  0
 38 80  1  0
 38 81  1  0
 39 82  1  0
 39 83  1  0
 40 84  1  0
 41 85  1  0
 42 86  1  0
 42 87  1  0
 43 88  1  0
 43 89  1  0
 44 90  1  0
 44 91  1  0
 45 92  1  0
 45 93  1  0
M  END
$$$$
