
     RDKit          3D

 93 90  0  0  0  0  0  0  0  0999 V2000
   -0.0864    0.3878    0.0000 O   0  0  0  0  0  0  0  0  0  0  0  0
   -0.3665    0.1572    0.1412 C   0  0  0  0  0  0  0  0  0  0  0  0
   -1.1815   -0.6489   -0.8768 C   0  0  0  0  0  0  0  0  0  0  0  0
    1.0891   -0.3030    0.2690 C   0  0  0  0  0  0  0  0  0  0  0  0
   -0.3989    1.6336   -0.2955 C   0  0  0  0  0  0  0  0  0  0  0  0
    1.8933    0.6954    1.0512 C   0  0  0  0  0  0  0  0  0  0  0  0
   -1.2133   -2.1180   -0.5713 C   0  0  0  0  0  0  0  0  0  0  0  0
   -0.7188    2.5832    0.4031 O   0  0  0  0  0  0  0  0  0  0  0  0
   -0.2479   -2.8605   -0.5071 O   0  0  0  0  0  0  0  0  0  0  0  0
    1.7099    1.0015    2.2181 O   0  0  0  0  0  0  0  0  0  0  0  0
   -1.0269    0.0233    1.4093 O   0  0  0  0  0  0  0  0  0  0  0  0
    0.0272    1.8340   -1.5581 O   0  0  0  0  0  0  0  0  0  0  0  0
   -2.4606   -2.5998   -0.4179 O   0  0  0  0  0  0  0  0  0  0  0  0
    2.8614    1.2831    0.3282 O   0  0  0  0  0  0  0  0  0  0  0  0
   -0.2100    1.4181    0.5081 N   0  0  0  0  0  0  0  0  0  0  0  0
    0.1813   -1.4481   -0.4204 N   0  0  0  0  0  0  0  0  0  0  0  0
    0.8666    0.5385    0.9899 C   0  0  0  0  0  0  0  0  0  0  0  0
    1.2782   -0.5531   -0.0164 C   0  0  0  0  0  0  0  0  0  0  0  0
   -1.1427    0.7029   -0.3793 C   0  0  0  0  0  0  0  0  0  0  0  0
   -1.1359   -0.8287   -0.2072 C   0  0  0  0  0  0  0  0  0  0  0  0
   -0.1316    0.6076   -0.6958 C   0  0  0  0  0  0  0  0  0  0  0  0
   -0.6650   -0.8308   -0.7399 C   0  0  0  0  0  0  0  0  0  0  0  0
    1.3896    0.7396   -0.6356 C   0  0  0  0  0  0  0  0  0  0  0  0
   -0.8117    1.4758    0.3711 C   0  0  0  0  0  0  0  0  0  0  0  0
    2.0453    0.1358    0.5683 C   0  0  0  0  0  0  0  0  0  0  0  0
   -0.8445   -1.4974    0.5949 C   0  0  0  0  0  0  0  0  0  0  0  0
   -0.2972    2.0613    1.3064 O   0  0  0  0  0  0  0  0  0  0  0  0
   -0.7926   -0.9844    1.6978 O   0  0  0  0  0  0  0  0  0  0  0  0
    2.5995    0.7331    1.4746 O   0  0  0  0  0  0  0  0  0  0  0  0
   -0.5101    1.2104   -1.9721 O   0  0  0  0  0  0  0  0  0  0  0  0
   -2.1391    1.6118    0.1276 O   0  0  0  0  0  0  0  0  0  0  0  0
   -1.1298   -2.8085    0.4654 O   0  0  0  0  0  0  0  0  0  0  0  0
    2.0524   -1.2108    0.5412 O   0  0  0  0  0  0  0  0  0  0  0  0
   -0.7478    1.2968   -0.3234 N   0  0  0  0  0  0  0  0  0  0  0  0
    0.6705   -1.1936    0.4434 N   0  0  0  0  0  0  0  0  0  0  0  0
    0.5698    1.3144    0.3380 C   0  0  0  0  0  0  0  0  0  0  0  0
    1.3900    0.0332    0.0755 C   0  0  0  0  0  0  0  0  0  0  0  0
   -1.4661    0.0782    0.0950 C   0  0  0  0  0  0  0  0  0  0  0  0
   -0.6627   -1.2125   -0.1728 C   0  0  0  0  0  0  0  0  0  0  0  0
    0.3487    1.4095   -0.0542 N   0  0  0  0  0  0  0  0  0  0  0  0
   -0.2834   -1.2023   -0.7649 N   0  0  0  0  0  0  0  0  0  0  0  0
    1.2635    0.3897    0.4845 C   0  0  0  0  0  0  0  0  0  0  0  0
    1.0398   -1.0108   -0.1377 C   0  0  0  0  0  0  0  0  0  0  0  0
   -1.0450    0.9940    0.2029 C   0  0  0  0  0  0  0  0  0  0  0  0
   -1.3055   -0.5254    0.0502 C   0  0  0  0  0  0  0  0  0  0  0  0
    0.7886   -0.0282    0.0000 H   0  0  0  0  0  0  0  0  0  0  0  0
   -0.7021   -0.3596    0.0000 H   0  0  0  0  0  0  0  0  0  0  0  0
   -2.2131   -0.2755   -0.8948 H   0  0  0  0  0  0  0  0  0  0  0  0
   -0.7960   -0.5451   -1.8987 H   0  0  0  0  0  0  0  0  0  0  0  0
    1.5469   -0.4401   -0.7173 H   0  0  0  0  0  0  0  0  0  0  0  0
    1.1769   -1.2527    0.8110 H   0  0  0  0  0  0  0  0  0  0  0  0
   -0.6417    0.6898    2.0173 H   0  0  0  0  0  0  0  0  0  0  0  0
   -0.0145    2.8090   -1.6727 H   0  0  0  0  0  0  0  0  0  0  0  0
   -2.3340   -3.5479   -0.2039 H   0  0  0  0  0  0  0  0  0  0  0  0
    3.3090    1.8814    0.9659 H   0  0  0  0  0  0  0  0  0  0  0  0
    0.1940    2.1977   -0.0108 H   0  0  0  0  0  0  0  0  0  0  0  0
    0.2958   -1.6779   -1.4064 H   0  0  0  0  0  0  0  0  0  0  0  0
    1.7387    1.1522    1.2393 H   0  0  0  0  0  0  0  0  0  0  0  0
    0.5421    0.0681    1.9259 H   0  0  0  0  0  0  0  0  0  0  0  0
    1.6848   -0.0681   -0.9135 H   0  0  0  0  0  0  0  0  0  0  0  0
    2.0837   -1.1617    0.4091 H   0  0  0  0  0  0  0  0  0  0  0  0
   -0.8884    0.9375   -1.4223 H   0  0  0  0  0  0  0  0  0  0  0  0
   -2.1531    1.0870   -0.2006 H   0  0  0  0  0  0  0  0  0  0  0  0
   -1.8556   -1.2814   -0.8982 H   0  0  0  0  0  0  0  0  0  0  0  0
   -1.4794   -1.0831    0.8029 H   0  0  0  0  0  0  0  0  0  0  0  0
   -1.6518   -0.8386   -1.2201 H   0  0  0  0  0  0  0  0  0  0  0  0
   -0.0115   -1.4534   -1.3634 H   0  0  0  0  0  0  0  0  0  0  0  0
    1.8480    0.3009   -1.5328 H   0  0  0  0  0  0  0  0  0  0  0  0
    1.6781    1.7999   -0.6704 H   0  0  0  0  0  0  0  0  0  0  0  0
   -1.4783    1.3407   -1.9378 H   0  0  0  0  0  0  0  0  0  0  0  0
   -2.4412    2.1830    0.8690 H   0  0  0  0  0  0  0  0  0  0  0  0
   -1.2392   -3.1301    1.3863 H   0  0  0  0  0  0  0  0  0  0  0  0
    2.5307   -1.4458    1.3655 H   0  0  0  0  0  0  0  0  0  0  0  0
   -0.5920    1.2384   -1.3298 H   0  0  0  0  0  0  0  0  0  0  0  0
    1.2005   -2.0085    0.1372 H   0  0  0  0  0  0  0  0  0  0  0  0
    1.1311    2.1824   -0.0251 H   0  0  0  0  0  0  0  0  0  0  0  0
    0.4341    1.4560    1.4175 H   0  0  0  0  0  0  0  0  0  0  0  0
    2.3216    0.0800    0.6496 H   0  0  0  0  0  0  0  0  0  0  0  0
    1.6669   -0.0121   -0.9853 H   0  0  0  0  0  0  0  0  0  0  0  0
   -2.4168    0.0305   -0.4469 H   0  0  0  0  0  0  0  0  0  0  0  0
   -1.7158    0.1492    1.1616 H   0  0  0  0  0  0  0  0  0  0  0  0
   -1.2206   -2.0694    0.2210 H   0  0  0  0  0  0  0  0  0  0  0  0
   -0.5625   -1.3632   -1.2553 H   0  0  0  0  0  0  0  0  0  0  0  0
    0.4831    1.4344   -1.0655 H   0  0  0  0  0  0  0  0  0  0  0  0
   -0.2669   -0.7417   -1.6752 H   0  0  0  0  0  0  0  0  0  0  0  0
    1.1304    0.3333    1.5718 H   0  0  0  0  0  0  0  0  0  0  0  0
    2.2987    0.7075    0.3143 H   0  0  0  0  0  0  0  0  0  0  0  0
    1.7983   -1.1866   -0.9092 H   0  0  0  0  0  0  0  0  0  0  0  0
    1.1888   -1.7770    0.6329 H   0  0  0  0  0  0  0  0  0  0  0  0
   -1.6865    1.5424   -0.4968 H   0  0  0  0  0  0  0  0  0  0  0  0
   -1.3345    1.3118    1.2120 H   0  0  0  0  0  0  0  0  0  0  0  0
   -1.3402   -0.9956    1.0409 H   0  0  0  0  0  0  0  0  0  0  0  0
   -2.2895   -0.6833   -0.4059 H   0  0  0  0  0  0  0  0  0  0  0  0
  3  2  1  0
  4  2  1  0
  5  2  1  0
  6  4  1  0
  7  3  1  0
  8  5  2  0
  9  7  2  0
 10  6  2  0
 11  2  1  0
 12  5  1  0
 13  7  1  0
 14  6  1  0
 16 20  1  0
 17 15  1  0
 18 17  1  0
 19 15  1  0
 20 19  1  0
 16 18  1  0
 22 21  1  0
 23 21  1  0
 24 21  1  0
 25 23  1  0
 26 22  1  0
 27 24  2  0
 28 26  2  0
 29 25  2  0
 30 21  1  0
 31 24  1  0
 32 26  1  0
 33 25  1  0
 35 39  1  0
 36 34  1  0
 37 36  1  0
 38 34  1  0
 39 38  1  0
 35 37  1  0
 41 45  1  0
 42 40  1  0
 43 42  1  0
 44 40  1  0
 45 44  1  0
 41 43  1  0
  1 46  1  0
  1 47  1  0
  3 48  1  0
  3 49  1  0
  4 50  1  0
  4 51  1  0
 11 52  1  0
 12 53  1  0
 13 54  1  0
 14 55  1  0
 15 56  1  0
 16 57  1  0
 17 58  1  0
 17 59  1  0
 18 60  1  0
 18 61  1  0
 19 62  1  0
 19 63  1  0
 20 64  1  0
 20 65  1  0
 22 66  1  0
 22 67  1  0
 23 68  1  0
 23 69  1  0
 30 70  1  0
 31 71  1  0
 32 72  1  0
 33 73  1  0
 34 74  1  0
 35 75  1  0
 36 76  1  0
 36 77  1  0
 37 78  1  0
 37 79  1  0
 38 80  1  0
 38 81  1  0
 39 82  1  0
 39 83  1  0
 40 84  1  0
 41 85  1  0
 42 86  1  0
 42 87  1  0
 43 88  1  0
 43 89  1  0
 44 90  1  0
 44 91  1  0
 45 92  1  0
 45 93  1  0
M  END
$$$$
