
     RDKit          3D

 93 90  0  0  0  0  0  0  0  0999 V2000
    0.0261    0.3967    0.0000 O   0  0  0  0  0  0  0  0  0  0  0  0
   -0.1568   -0.6471   -0.2780 C   0  0  0  0  0  0  0  0  0  0  0  0
    0.7919    0.2220   -1.1085 C   0  0  0  0  0  0  0  0  0  0  0  0
   -1.1674    0.0311    0.6513 C   0  0  0  0  0  0  0  0  0  0  0  0
    0.7154   -1.5900    0.5689 C   0  0  0  0  0  0  0  0  0  0  0  0
   -1.9606    1.1268   -0.0005 C   0  0  0  0  0  0  0  0  0  0  0  0
    1.5568    1.2356   -0.3047 C   0  0  0  0  0  0  0  0  0  0  0  0
    1.2375   -1.3612    1.6461 O   0  0  0  0  0  0  0  0  0  0  0  0
    1.2060    1.7942    0.7172 O   0  0  0  0  0  0  0  0  0  0  0  0
   -1.5926    1.9079   -0.8590 O   0  0  0  0  0  0  0  0  0  0  0  0
   -0.9251   -1.4516   -1.2042 O   0  0  0  0  0  0  0  0  0  0  0  0
    0.9129   -2.7844   -0.0433 O   0  0  0  0  0  0  0  0  0  0  0  0
    2.7466    1.5315   -0.8674 O   0  0  0  0  0  0  0  0  0  0  0  0
   -3.1995    1.2401    0.5268 O   0  0  0  0  0  0  0  0  0  0  0  0
   -0.1716    1.4760    0.0029 N   0  0  0  0  0  0  0  0  0  0  0  0
    0.1721   -1.4769   -0.0034 N   0  0  0  0  0  0  0  0  0  0  0  0
    1.1105    0.8325    0.3399 C   0  0  0  0  0  0  0  0  0  0  0  0
    1.2783   -0.5552   -0.3159 C   0  0  0  0  0  0  0  0  0  0  0  0
   -1.2782    0.5552    0.3170 C   0  0  0  0  0  0  0  0  0  0  0  0
   -1.1098   -0.8321   -0.3392 C   0  0  0  0  0  0  0  0  0  0  0  0
    0.1069    0.3776    0.4036 C   0  0  0  0  0  0  0  0  0  0  0  0
   -0.7045   -0.7996   -0.1535 C   0  0  0  0  0  0  0  0  0  0  0  0
    1.6025    0.2968    0.0680 C   0  0  0  0  0  0  0  0  0  0  0  0
   -0.3752    1.7208   -0.1702 C   0  0  0  0  0  0  0  0  0  0  0  0
    2.2242   -1.0119    0.4530 C   0  0  0  0  0  0  0  0  0  0  0  0
   -2.1885   -0.5788   -0.0594 C   0  0  0  0  0  0  0  0  0  0  0  0
   -0.6142    2.7240    0.4829 O   0  0  0  0  0  0  0  0  0  0  0  0
   -2.7664    0.3558    0.4669 O   0  0  0  0  0  0  0  0  0  0  0  0
    2.0489   -2.0793   -0.1120 O   0  0  0  0  0  0  0  0  0  0  0  0
   -0.0086    0.3815    1.8356 O   0  0  0  0  0  0  0  0  0  0  0  0
   -0.5066    1.7275   -1.5091 O   0  0  0  0  0  0  0  0  0  0  0  0
   -2.8862   -1.5772   -0.6352 O   0  0  0  0  0  0  0  0  0  0  0  0
    3.0549   -0.9211    1.5058 O   0  0  0  0  0  0  0  0  0  0  0  0
    0.4038   -0.9307    1.0214 N   0  0  0  0  0  0  0  0  0  0  0  0
   -0.4697    1.0872   -0.9717 N   0  0  0  0  0  0  0  0  0  0  0  0
   -0.8611   -1.0575    0.2846 C   0  0  0  0  0  0  0  0  0  0  0  0
   -1.4298    0.3033   -0.1722 C   0  0  0  0  0  0  0  0  0  0  0  0
    1.3633   -0.1179    0.2611 C   0  0  0  0  0  0  0  0  0  0  0  0
    0.7756    1.2354   -0.1951 C   0  0  0  0  0  0  0  0  0  0  0  0
    0.7495   -1.2660   -0.2050 N   0  0  0  0  0  0  0  0  0  0  0  0
   -0.7493    1.2670    0.2077 N   0  0  0  0  0  0  0  0  0  0  0  0
   -0.6478   -1.2466    0.2607 C   0  0  0  0  0  0  0  0  0  0  0  0
   -1.4166    0.0145   -0.1892 C   0  0  0  0  0  0  0  0  0  0  0  0
    1.4162   -0.0132    0.1897 C   0  0  0  0  0  0  0  0  0  0  0  0
    0.6474    1.2476   -0.2616 C   0  0  0  0  0  0  0  0  0  0  0  0
   -0.7750   -0.1483    0.0000 H   0  0  0  0  0  0  0  0  0  0  0  0
    0.7490   -0.2484    0.0000 H   0  0  0  0  0  0  0  0  0  0  0  0
    1.5204   -0.4325   -1.6092 H   0  0  0  0  0  0  0  0  0  0  0  0
    0.2649    0.7389   -1.9179 H   0  0  0  0  0  0  0  0  0  0  0  0
   -1.8818   -0.7297    0.9976 H   0  0  0  0  0  0  0  0  0  0  0  0
   -0.6965    0.4517    1.5461 H   0  0  0  0  0  0  0  0  0  0  0  0
   -0.3644   -2.2235   -1.4277 H   0  0  0  0  0  0  0  0  0  0  0  0
    1.4647   -3.2888    0.5930 H   0  0  0  0  0  0  0  0  0  0  0  0
    3.1166    2.2283   -0.2839 H   0  0  0  0  0  0  0  0  0  0  0  0
   -3.5889    2.0009    0.0470 H   0  0  0  0  0  0  0  0  0  0  0  0
   -0.1816    1.6402   -1.0049 H   0  0  0  0  0  0  0  0  0  0  0  0
    0.1818   -1.6421    1.0039 H   0  0  0  0  0  0  0  0  0  0  0  0
    1.9274    1.4869    0.0160 H   0  0  0  0  0  0  0  0  0  0  0  0
    1.1923    0.7412    1.4303 H   0  0  0  0  0  0  0  0  0  0  0  0
    2.2176   -1.0057    0.0236 H   0  0  0  0  0  0  0  0  0  0  0  0
    1.3557   -0.4446   -1.4047 H   0  0  0  0  0  0  0  0  0  0  0  0
   -2.2170    1.0059   -0.0241 H   0  0  0  0  0  0  0  0  0  0  0  0
   -1.3575    0.4461    1.4060 H   0  0  0  0  0  0  0  0  0  0  0  0
   -1.1924   -0.7417   -1.4293 H   0  0  0  0  0  0  0  0  0  0  0  0
   -1.9275   -1.4857   -0.0181 H   0  0  0  0  0  0  0  0  0  0  0  0
   -0.4903   -1.7125    0.4141 H   0  0  0  0  0  0  0  0  0  0  0  0
   -0.4620   -0.9576   -1.2095 H   0  0  0  0  0  0  0  0  0  0  0  0
    2.1488    1.1019    0.5790 H   0  0  0  0  0  0  0  0  0  0  0  0
    1.7894    0.4376   -1.0045 H   0  0  0  0  0  0  0  0  0  0  0  0
   -0.6743    1.0646    2.0687 H   0  0  0  0  0  0  0  0  0  0  0  0
   -0.8357    2.6301   -1.7123 H   0  0  0  0  0  0  0  0  0  0  0  0
   -3.8266   -1.3421   -0.4861 H   0  0  0  0  0  0  0  0  0  0  0  0
    3.3636   -1.8383    1.6570 H   0  0  0  0  0  0  0  0  0  0  0  0
    0.7960   -1.8559    1.1890 H   0  0  0  0  0  0  0  0  0  0  0  0
   -0.2530    0.5538   -1.8128 H   0  0  0  0  0  0  0  0  0  0  0  0
   -0.7074   -1.7020   -0.5903 H   0  0  0  0  0  0  0  0  0  0  0  0
   -1.5952   -1.5560    0.9270 H   0  0  0  0  0  0  0  0  0  0  0  0
   -2.3302    0.1332   -0.7736 H   0  0  0  0  0  0  0  0  0  0  0  0
   -1.7393    0.8925    0.7001 H   0  0  0  0  0  0  0  0  0  0  0  0
    1.7038   -0.6841   -0.6152 H   0  0  0  0  0  0  0  0  0  0  0  0
    2.2440    0.0661    0.8859 H   0  0  0  0  0  0  0  0  0  0  0  0
    1.5136    1.7575   -0.8144 H   0  0  0  0  0  0  0  0  0  0  0  0
    0.5858    1.8753    0.6761 H   0  0  0  0  0  0  0  0  0  0  0  0
    0.7383   -1.3034   -1.2252 H   0  0  0  0  0  0  0  0  0  0  0  0
   -0.7327    1.3005    1.2282 H   0  0  0  0  0  0  0  0  0  0  0  0
   -1.1576   -2.1374   -0.1228 H   0  0  0  0  0  0  0  0  0  0  0  0
   -0.6622   -1.3224    1.3553 H   0  0  0  0  0  0  0  0  0  0  0  0
   -2.4223   -0.0017    0.2454 H   0  0  0  0  0  0  0  0  0  0  0  0
   -1.5448    0.0045   -1.2790 H   0  0  0  0  0  0  0  0  0  0  0  0
    2.4218    0.0020   -0.2450 H   0  0  0  0  0  0  0  0  0  0  0  0
    1.5441   -0.0032    1.2790 H   0  0  0  0  0  0  0  0  0  0  0  0
    0.6573    1.3183   -1.3565 H   0  0  0  0  0  0  0  0  0  0  0  0
    1.1586    2.1394    0.1182 H   0  0  0  0  0  0  0  0  0  0  0  0
  3  2  1  0
  4  2  1  0
  5  2  1  0
  6  4  1  0
  7  3  1  0
  8  5  2  0
  9  7  2  0
 10  6  2  0
 11  2  1  0
 12  5  1  0
 13  7  1  0
 14  6  1  0
 16 20  1  0
 17 15  1  0
 18 17  1  0
 19 15  1  0
 20 19  1  0
 16 18  1  0
 22 21  1  0
 23 21  1  0
 24 21  1  0
 25 23  1  0
 26 22  1  0
 27 24  2  0
 28 26  2  0
 29 25  2  0
 30 21  1  0
 31 24  1  0
 32 26  1  0
 33 25  1  0
 35 39  1  0
 36 34  1  0
 37 36  1  0
 38 34  1  0
 39 38  1  0
 35 37  1  0
 41 45  1  0
 42 40  1  0
 43 42  1  0
 44 40  1  0
 45 44  1  0
 41 43  1  0
  1 46  1  0
  1 47  1  0
  3 48  1  0
  3 49  1  0
  4 50  1  0
  4 51  1  0
 11 52  1  0
 12 53  1  0
 13 54  1  0
 14 55  1  0
 15 56  1  0
 16 57  1  0
 17 58  1  0
 17 59  1  0
 18 60  1  0
 18 61  1  0
 19 62  1  0
 19 63  1  0
 20 64  1  0
 20 65  1  0
 22 66  1  0
 22 67  1  0
 23 68  1  0
 23 69  1  0
 30 70  1  0
 31 71  1  0
 32 72  1  0
 33 73  1  0
 34 74  1  0
 35 75  1  0
 36 76  1  0
 36 77  1  0
 37 78  1  0
 37 79  1  0
 38 80  1  0
 38 81  1  0
 39 82  1  0
 39 83  1  0
 40 84  1  0
 41 85  1  0
 42 86  1  0
 42 87  1  0
 43 88  1  0
 43 89  1  0
 44 90  1  0
 44 91  1  0
 45 92  1  0
 45 93  1  0
M  END
$$$$
