
     RDKit          3D

 93 90  0  0  0  0  0  0  0  0999 V2000
    0.0123    0.3967    0.0000 O   0  0  0  0  0  0  0  0  0  0  0  0
    0.0987    0.3365    0.1620 C   0  0  0  0  0  0  0  0  0  0  0  0
    1.1398    0.6903   -0.9102 C   0  0  0  0  0  0  0  0  0  0  0  0
   -0.4773   -1.0784    0.0131 C   0  0  0  0  0  0  0  0  0  0  0  0
   -1.0386    1.3611   -0.0204 C   0  0  0  0  0  0  0  0  0  0  0  0
   -1.7165   -1.2706    0.8429 C   0  0  0  0  0  0  0  0  0  0  0  0
    2.3247   -0.2331   -0.9491 C   0  0  0  0  0  0  0  0  0  0  0  0
   -1.7742    1.4492   -0.9903 O   0  0  0  0  0  0  0  0  0  0  0  0
    2.3324   -1.4416   -0.7873 O   0  0  0  0  0  0  0  0  0  0  0  0
   -1.9732   -0.7130    1.8974 O   0  0  0  0  0  0  0  0  0  0  0  0
    0.7344    0.4706    1.4385 O   0  0  0  0  0  0  0  0  0  0  0  0
   -1.1852    2.1933    1.0303 O   0  0  0  0  0  0  0  0  0  0  0  0
    3.4589    0.4080   -1.2973 O   0  0  0  0  0  0  0  0  0  0  0  0
   -2.5492   -2.1885    0.3216 O   0  0  0  0  0  0  0  0  0  0  0  0
   -0.6696   -1.0788   -0.8359 N   0  0  0  0  0  0  0  0  0  0  0  0
    0.6699    1.0786    0.7078 N   0  0  0  0  0  0  0  0  0  0  0  0
   -1.3941   -0.2407    0.1363 C   0  0  0  0  0  0  0  0  0  0  0  0
   -0.7521    1.1502    0.3288 C   0  0  0  0  0  0  0  0  0  0  0  0
    0.7522   -1.1508   -0.4555 C   0  0  0  0  0  0  0  0  0  0  0  0
    1.3939    0.2400   -0.2622 C   0  0  0  0  0  0  0  0  0  0  0  0
   -0.1655    0.0551   -0.6316 C   0  0  0  0  0  0  0  0  0  0  0  0
   -0.5787   -1.0510    0.3476 C   0  0  0  0  0  0  0  0  0  0  0  0
    1.2099   -0.1981   -1.2555 C   0  0  0  0  0  0  0  0  0  0  0  0
   -0.1535    1.4137    0.0939 C   0  0  0  0  0  0  0  0  0  0  0  0
    2.3588    0.0124   -0.3145 C   0  0  0  0  0  0  0  0  0  0  0  0
   -1.9033   -0.7520    1.0001 C   0  0  0  0  0  0  0  0  0  0  0  0
    0.2912    1.6403    1.2071 O   0  0  0  0  0  0  0  0  0  0  0  0
   -2.6834    0.1415    0.7129 O   0  0  0  0  0  0  0  0  0  0  0  0
    3.0240    1.0275   -0.2137 O   0  0  0  0  0  0  0  0  0  0  0  0
   -1.0899    0.0320   -1.7338 O   0  0  0  0  0  0  0  0  0  0  0  0
   -0.7378    2.3921   -0.6316 O   0  0  0  0  0  0  0  0  0  0  0  0
   -2.1768   -1.6086    2.0008 O   0  0  0  0  0  0  0  0  0  0  0  0
    2.6079   -1.0574    0.4610 O   0  0  0  0  0  0  0  0  0  0  0  0
   -0.5209   -1.1864   -0.7279 N   0  0  0  0  0  0  0  0  0  0  0  0
    0.5217    1.1870    0.7241 N   0  0  0  0  0  0  0  0  0  0  0  0
   -1.3849   -0.3342    0.1075 C   0  0  0  0  0  0  0  0  0  0  0  0
   -0.8645    1.1141    0.2310 C   0  0  0  0  0  0  0  0  0  0  0  0
    0.8639   -1.1160   -0.2289 C   0  0  0  0  0  0  0  0  0  0  0  0
    1.3855    0.3328   -0.1092 C   0  0  0  0  0  0  0  0  0  0  0  0
   -0.9982   -1.0921    0.1474 N   0  0  0  0  0  0  0  0  0  0  0  0
    0.9963    1.0912   -0.1468 N   0  0  0  0  0  0  0  0  0  0  0  0
   -1.3894    0.3273    0.0828 C   0  0  0  0  0  0  0  0  0  0  0  0
   -0.3715    1.1994   -0.6841 C   0  0  0  0  0  0  0  0  0  0  0  0
    0.3709   -1.1999    0.6831 C   0  0  0  0  0  0  0  0  0  0  0  0
    1.3896   -0.3270   -0.0818 C   0  0  0  0  0  0  0  0  0  0  0  0
    0.7579   -0.2225    0.0000 H   0  0  0  0  0  0  0  0  0  0  0  0
   -0.7701   -0.1742    0.0000 H   0  0  0  0  0  0  0  0  0  0  0  0
    0.6980    0.6945   -1.9138 H   0  0  0  0  0  0  0  0  0  0  0  0
    1.5152    1.7038   -0.7126 H   0  0  0  0  0  0  0  0  0  0  0  0
   -0.7344   -1.2661   -1.0360 H   0  0  0  0  0  0  0  0  0  0  0  0
    0.2277   -1.8429    0.3515 H   0  0  0  0  0  0  0  0  0  0  0  0
    0.0133    0.5176    2.1017 H   0  0  0  0  0  0  0  0  0  0  0  0
   -1.9432    2.7738    0.7984 H   0  0  0  0  0  0  0  0  0  0  0  0
    4.1376   -0.3021   -1.2995 H   0  0  0  0  0  0  0  0  0  0  0  0
   -3.2889   -2.2624    0.9591 H   0  0  0  0  0  0  0  0  0  0  0  0
   -0.7256   -0.6175   -1.7448 H   0  0  0  0  0  0  0  0  0  0  0  0
    0.7261    0.6176    1.6166 H   0  0  0  0  0  0  0  0  0  0  0  0
   -2.4263   -0.1173   -0.2081 H   0  0  0  0  0  0  0  0  0  0  0  0
   -1.4446   -0.7659    1.0984 H   0  0  0  0  0  0  0  0  0  0  0  0
   -0.8516    1.7368   -0.5933 H   0  0  0  0  0  0  0  0  0  0  0  0
   -1.2938    1.6955    1.1094 H   0  0  0  0  0  0  0  0  0  0  0  0
    1.2973   -1.6971   -1.2334 H   0  0  0  0  0  0  0  0  0  0  0  0
    0.8482   -1.7353    0.4682 H   0  0  0  0  0  0  0  0  0  0  0  0
    1.4430    0.7651   -1.2238 H   0  0  0  0  0  0  0  0  0  0  0  0
    2.4271    0.1195    0.0819 H   0  0  0  0  0  0  0  0  0  0  0  0
    0.1570   -1.1522    1.1519 H   0  0  0  0  0  0  0  0  0  0  0  0
   -0.6807   -2.0071   -0.1773 H   0  0  0  0  0  0  0  0  0  0  0  0
    1.2766   -1.2023   -1.6951 H   0  0  0  0  0  0  0  0  0  0  0  0
    1.3694    0.4854   -2.1031 H   0  0  0  0  0  0  0  0  0  0  0  0
   -1.7577    0.7274   -1.5416 H   0  0  0  0  0  0  0  0  0  0  0  0
   -0.6790    3.1883   -0.0588 H   0  0  0  0  0  0  0  0  0  0  0  0
   -3.0426   -1.3151    2.3510 H   0  0  0  0  0  0  0  0  0  0  0  0
    3.3542   -0.7717    1.0303 H   0  0  0  0  0  0  0  0  0  0  0  0
   -0.5300   -0.8028   -1.6740 H   0  0  0  0  0  0  0  0  0  0  0  0
    0.5333    0.8090    1.6720 H   0  0  0  0  0  0  0  0  0  0  0  0
   -1.4793   -0.7834    1.1038 H   0  0  0  0  0  0  0  0  0  0  0  0
   -2.3902   -0.3216   -0.3264 H   0  0  0  0  0  0  0  0  0  0  0  0
   -0.9256    1.6172   -0.7422 H   0  0  0  0  0  0  0  0  0  0  0  0
   -1.5097    1.6753    0.9156 H   0  0  0  0  0  0  0  0  0  0  0  0
    1.5111   -1.6789   -0.9112 H   0  0  0  0  0  0  0  0  0  0  0  0
    0.9197   -1.6147    0.7474 H   0  0  0  0  0  0  0  0  0  0  0  0
    1.4777    0.7815   -1.1060 H   0  0  0  0  0  0  0  0  0  0  0  0
    2.3921    0.3209    0.3242 H   0  0  0  0  0  0  0  0  0  0  0  0
   -0.9851   -1.4520   -0.8074 H   0  0  0  0  0  0  0  0  0  0  0  0
    0.9830    1.4505    0.8084 H   0  0  0  0  0  0  0  0  0  0  0  0
   -1.5157    0.7094    1.1033 H   0  0  0  0  0  0  0  0  0  0  0  0
   -2.3680    0.4011   -0.4044 H   0  0  0  0  0  0  0  0  0  0  0  0
   -0.6848    2.2487   -0.6385 H   0  0  0  0  0  0  0  0  0  0  0  0
   -0.3631    0.9182   -1.7449 H   0  0  0  0  0  0  0  0  0  0  0  0
    0.3629   -0.9177    1.7431 H   0  0  0  0  0  0  0  0  0  0  0  0
    0.6868   -2.2481    0.6357 H   0  0  0  0  0  0  0  0  0  0  0  0
    2.3687   -0.3978    0.4052 H   0  0  0  0  0  0  0  0  0  0  0  0
    1.5176   -0.7112   -1.1010 H   0  0  0  0  0  0  0  0  0  0  0  0
  3  2  1  0
  4  2  1  0
  5  2  1  0
  6  4  1  0
  7  3  1  0
  8  5  2  0
  9  7  2  0
 10  6  2  0
 11  2  1  0
 12  5  1  0
 13  7  1  0
 14  6  1  0
 16 20  1  0
 17 15  1  0
 18 17  1  0
 19 15  1  0
 20 19  1  0
 16 18  1  0
 22 21  1  0
 23 21  1  0
 24 21  1  0
 25 23  1  0
 26 22  1  0
 27 24  2  0
 28 26  2  0
 29 25  2  0
 30 21  1  0
 31 24  1  0
 32 26  1  0
 33 25  1  0
 35 39  1  0
 36 34  1  0
 37 36  1  0
 38 34  1  0
 39 38  1  0
 35 37  1  0
 41 45  1  0
 42 40  1  0
 43 42  1  0
 44 40  1  0
 45 44  1  0
 41 43  1  0
  1 46  1  0
  1 47  1  0
  3 48  1  0
  3 49  1  0
  4 50  1  0
  4 51  1  0
 11 52  1  0
 12 53  1  0
 13 54  1  0
 14 55  1  0
 15 56  1  0
 16 57  1  0
 17 58  1  0
 17 59  1  0
 18 60  1  0
 18 61  1  0
 19 62  1  0
 19 63  1  0
 20 64  1  0
 20 65  1  0
 22 66  1  0
 22 67  1  0
 23 68  1  0
 23 69  1  0
 30 70  1  0
 31 71  1  0
 32 72  1  0
 33 73  1  0
 34 74  1  0
 35 75  1  0
 36 76  1  0
 36 77  1  0
 37 78  1  0
 37 79  1  0
 38 80  1  0
 38 81  1  0
 39 82  1  0
 39 83  1  0
 40 84  1  0
 41 85  1  0
 42 86  1  0
 42 87  1  0
 43 88  1  0
 43 89  1  0
 44 90  1  0
 44 91  1  0
 45 92  1  0
 45 93  1  0
M  END
$$$$
