
     RDKit          3D

 42 46  0  0  0  0  0  0  0  0999 V2000
    1.7647    0.1088   -0.5548 C   0  0  0  0  0  0  0  0  0  0  0  0
    3.2111    0.4099   -0.4241 C   0  0  0  0  0  0  0  0  0  0  0  0
    4.0475    0.3628   -1.5531 C   0  0  0  0  0  0  0  0  0  0  0  0
    5.4107    0.6504   -1.4410 C   0  0  0  0  0  0  0  0  0  0  0  0
    5.9628    1.0164   -0.2026 C   0  0  0  0  0  0  0  0  0  0  0  0
    5.1320    1.0479    0.9295 C   0  0  0  0  0  0  0  0  0  0  0  0
    3.7686    0.7595    0.8185 C   0  0  0  0  0  0  0  0  0  0  0  0
    1.2230    0.1409   -1.6934 O   0  0  0  0  0  0  0  0  0  0  0  0
    0.9803   -0.2601    0.5892 N   0  0  0  0  0  0  0  0  0  0  0  0
   -1.2330    0.8155    0.0513 C   0  0  0  0  0  0  0  0  0  0  0  0
   -0.4261   -0.2349    0.5650 N   0  0  0  0  0  0  0  0  0  0  0  0
   -1.2573   -1.0223    1.4004 C   0  0  0  0  0  0  0  0  0  0  0  0
   -2.6887   -0.5761    1.3905 C   0  0  2  0  0  0  0  0  0  0  0  0
   -3.6583   -1.6475    0.7989 C   0  0  1  0  0  0  0  0  0  0  0  0
   -5.0700   -0.9656    0.7957 C   0  0  1  0  0  0  0  0  0  0  0  0
   -5.0527    0.2850   -0.1262 C   0  0  1  0  0  0  0  0  0  0  0  0
   -3.6288    0.4645   -0.7571 C   0  0  1  0  0  0  0  0  0  0  0  0
   -2.6721    0.6943    0.4549 C   0  0  2  0  0  0  0  0  0  0  0  0
   -5.9461   -0.9135   -0.4595 C   0  0  0  0  0  0  0  0  0  0  0  0
   -3.2144   -1.9146   -0.6338 C   0  0  0  0  0  0  0  0  0  0  0  0
   -3.1989   -0.8323   -1.4310 C   0  0  0  0  0  0  0  0  0  0  0  0
   -0.8254   -1.9872    2.0855 O   0  0  0  0  0  0  0  0  0  0  0  0
   -0.7726    1.7836   -0.6101 O   0  0  0  0  0  0  0  0  0  0  0  0
    7.4422    1.2787   -0.0725 C   0  0  0  0  0  0  0  0  0  0  0  0
    7.6913    2.1785    0.9494 F   0  0  0  0  0  0  0  0  0  0  0  0
    7.9502    1.8072   -1.2468 F   0  0  0  0  0  0  0  0  0  0  0  0
    8.0921    0.0907    0.2050 F   0  0  0  0  0  0  0  0  0  0  0  0
    3.6507    0.0888   -2.5228 H   0  0  0  0  0  0  0  0  0  0  0  0
    6.0341    0.5842   -2.3240 H   0  0  0  0  0  0  0  0  0  0  0  0
    5.5362    1.2992    1.9021 H   0  0  0  0  0  0  0  0  0  0  0  0
    3.1536    0.8261    1.7062 H   0  0  0  0  0  0  0  0  0  0  0  0
    1.4588   -0.7088    1.4020 H   0  0  0  0  0  0  0  0  0  0  0  0
   -2.9944   -0.2978    2.4234 H   0  0  0  0  0  0  0  0  0  0  0  0
   -3.6645   -2.5791    1.4032 H   0  0  0  0  0  0  0  0  0  0  0  0
   -5.5682   -0.7641    1.7683 H   0  0  0  0  0  0  0  0  0  0  0  0
   -5.5416    1.1632    0.3476 H   0  0  0  0  0  0  0  0  0  0  0  0
   -3.6096    1.3180   -1.4674 H   0  0  0  0  0  0  0  0  0  0  0  0
   -2.9718    1.6019    1.0243 H   0  0  0  0  0  0  0  0  0  0  0  0
   -5.6562   -1.5504   -1.3185 H   0  0  0  0  0  0  0  0  0  0  0  0
   -7.0196   -0.7367   -0.2398 H   0  0  0  0  0  0  0  0  0  0  0  0
   -2.9344   -2.9007   -0.9888 H   0  0  0  0  0  0  0  0  0  0  0  0
   -2.9054   -0.8841   -2.4741 H   0  0  0  0  0  0  0  0  0  0  0  0
  4  5  2  0
  5  6  1  0
  6  7  2  0
  2  7  1  0
  1  8  2  0
  1  9  1  0
 10 11  1  0
 11 12  1  0
 13 12  1  0
 14 13  1  0
 14 15  1  0
 16 15  1  0
 17 16  1  0
 17 18  1  0
 18 10  1  0
 18 13  1  0
 15 19  1  0
 16 19  1  0
 20 21  2  0
 14 20  1  0
 17 21  1  0
 12 22  2  0
 10 23  2  0
  9 11  1  0
  5 24  1  0
  1  2  1  0
 24 25  1  0
  2  3  2  0
 24 26  1  0
  3  4  1  0
 24 27  1  0
  3 28  1  0
  4 29  1  0
  6 30  1  0
  7 31  1  0
  9 32  1  0
 13 33  1  1
 14 34  1  1
 15 35  1  1
 16 36  1  1
 17 37  1  6
 18 38  1  1
 19 39  1  0
 19 40  1  0
 20 41  1  0
 21 42  1  0
M  END
$$$$
