
     RDKit          3D

 42 46  0  0  0  0  0  0  0  0999 V2000
    1.7256    0.3644   -0.5322 C   0  0  0  0  0  0  0  0  0  0  0  0
    3.1892    0.5559   -0.3872 C   0  0  0  0  0  0  0  0  0  0  0  0
    3.8438    0.2483    0.8187 C   0  0  0  0  0  0  0  0  0  0  0  0
    5.2227    0.4388    0.9470 C   0  0  0  0  0  0  0  0  0  0  0  0
    5.9732    0.9628   -0.1183 C   0  0  0  0  0  0  0  0  0  0  0  0
    5.3236    1.2540   -1.3290 C   0  0  0  0  0  0  0  0  0  0  0  0
    3.9448    1.0648   -1.4578 C   0  0  0  0  0  0  0  0  0  0  0  0
    1.1103    0.9536   -1.4623 O   0  0  0  0  0  0  0  0  0  0  0  0
    1.0049   -0.5147    0.3440 N   0  0  0  0  0  0  0  0  0  0  0  0
   -1.1911    0.6967    0.5795 C   0  0  0  0  0  0  0  0  0  0  0  0
   -0.3976   -0.4744    0.4478 N   0  0  0  0  0  0  0  0  0  0  0  0
   -1.2038   -1.5666    0.8550 C   0  0  0  0  0  0  0  0  0  0  0  0
   -2.6120   -1.1663    1.1790 C   0  0  2  0  0  0  0  0  0  0  0  0
   -3.6647   -1.8050    0.2188 C   0  0  1  0  0  0  0  0  0  0  0  0
   -5.0426   -1.2029    0.6622 C   0  0  1  0  0  0  0  0  0  0  0  0
   -5.0334    0.3391    0.4713 C   0  0  1  0  0  0  0  0  0  0  0  0
   -3.6489    0.7986   -0.1028 C   0  0  1  0  0  0  0  0  0  0  0  0
   -2.6036    0.3996    0.9859 C   0  0  2  0  0  0  0  0  0  0  0  0
   -5.9982   -0.5375   -0.3327 C   0  0  0  0  0  0  0  0  0  0  0  0
   -3.3303   -1.3367   -1.1919 C   0  0  0  0  0  0  0  0  0  0  0  0
   -3.3218   -0.0026   -1.3565 C   0  0  0  0  0  0  0  0  0  0  0  0
   -0.7688   -2.7454    0.9441 O   0  0  0  0  0  0  0  0  0  0  0  0
   -0.7349    1.8626    0.4412 O   0  0  0  0  0  0  0  0  0  0  0  0
    7.4680    1.1206    0.0046 C   0  0  0  0  0  0  0  0  0  0  0  0
    7.9183    2.1544   -0.7983 F   0  0  0  0  0  0  0  0  0  0  0  0
    8.0830   -0.0540   -0.3864 F   0  0  0  0  0  0  0  0  0  0  0  0
    7.8240    1.4025    1.3122 F   0  0  0  0  0  0  0  0  0  0  0  0
    3.2934   -0.1263    1.6716 H   0  0  0  0  0  0  0  0  0  0  0  0
    5.7021    0.1787    1.8825 H   0  0  0  0  0  0  0  0  0  0  0  0
    5.8826    1.6266   -2.1783 H   0  0  0  0  0  0  0  0  0  0  0  0
    3.4721    1.3037   -2.4025 H   0  0  0  0  0  0  0  0  0  0  0  0
    1.5173   -1.3067    0.7926 H   0  0  0  0  0  0  0  0  0  0  0  0
   -2.8351   -1.4293    2.2367 H   0  0  0  0  0  0  0  0  0  0  0  0
   -3.6704   -2.9133    0.2889 H   0  0  0  0  0  0  0  0  0  0  0  0
   -5.4649   -1.5023    1.6455 H   0  0  0  0  0  0  0  0  0  0  0  0
   -5.4509    0.8741    1.3514 H   0  0  0  0  0  0  0  0  0  0  0  0
   -3.6407    1.8907   -0.3042 H   0  0  0  0  0  0  0  0  0  0  0  0
   -2.8247    0.9124    1.9482 H   0  0  0  0  0  0  0  0  0  0  0  0
   -5.7947   -0.6722   -1.4133 H   0  0  0  0  0  0  0  0  0  0  0  0
   -7.0459   -0.4863    0.0304 H   0  0  0  0  0  0  0  0  0  0  0  0
   -3.1177   -2.0230   -2.0047 H   0  0  0  0  0  0  0  0  0  0  0  0
   -3.1018    0.4628   -2.3114 H   0  0  0  0  0  0  0  0  0  0  0  0
  4  5  2  0
  5  6  1  0
  6  7  2  0
  2  7  1  0
  1  8  2  0
  1  9  1  0
 10 11  1  0
 11 12  1  0
 13 12  1  0
 14 13  1  0
 14 15  1  0
 16 15  1  0
 17 16  1  0
 17 18  1  0
 18 10  1  0
 18 13  1  0
 15 19  1  0
 16 19  1  0
 20 21  2  0
 14 20  1  0
 17 21  1  0
 12 22  2  0
 10 23  2  0
  9 11  1  0
  5 24  1  0
  1  2  1  0
 24 25  1  0
  2  3  2  0
 24 26  1  0
  3  4  1  0
 24 27  1  0
  3 28  1  0
  4 29  1  0
  6 30  1  0
  7 31  1  0
  9 32  1  0
 13 33  1  1
 14 34  1  6
 15 35  1  1
 16 36  1  1
 17 37  1  6
 18 38  1  1
 19 39  1  0
 19 40  1  0
 20 41  1  0
 21 42  1  0
M  END
$$$$
