
     RDKit          3D

 42 46  0  0  0  0  0  0  0  0999 V2000
    1.9591   -1.1691    0.2684 C   0  0  0  0  0  0  0  0  0  0  0  0
    3.2625   -0.4817    0.4365 C   0  0  0  0  0  0  0  0  0  0  0  0
    3.4002    0.8876    0.1483 C   0  0  0  0  0  0  0  0  0  0  0  0
    4.6311    1.5287    0.3165 C   0  0  0  0  0  0  0  0  0  0  0  0
    5.7537    0.8125    0.7630 C   0  0  0  0  0  0  0  0  0  0  0  0
    5.6084   -0.5464    1.0867 C   0  0  0  0  0  0  0  0  0  0  0  0
    4.3779   -1.1880    0.9197 C   0  0  0  0  0  0  0  0  0  0  0  0
    1.7577   -2.2719    0.8464 O   0  0  0  0  0  0  0  0  0  0  0  0
    0.9381   -0.6188   -0.5766 N   0  0  0  0  0  0  0  0  0  0  0  0
   -1.1521   -1.1987    0.6982 C   0  0  0  0  0  0  0  0  0  0  0  0
   -0.4014   -1.0419   -0.4982 N   0  0  0  0  0  0  0  0  0  0  0  0
   -1.3367   -0.9230   -1.5566 C   0  0  0  0  0  0  0  0  0  0  0  0
   -2.7576   -1.0843   -1.1065 C   0  0  2  0  0  0  0  0  0  0  0  0
   -3.6416    0.1669   -1.4084 C   0  0  1  0  0  0  0  0  0  0  0  0
   -5.0457   -0.1664   -0.7962 C   0  0  1  0  0  0  0  0  0  0  0  0
   -4.9215   -0.3580    0.7406 C   0  0  1  0  0  0  0  0  0  0  0  0
   -3.4323   -0.1557    1.1863 C   0  0  1  0  0  0  0  0  0  0  0  0
   -2.6300   -1.2778    0.4540 C   0  0  2  0  0  0  0  0  0  0  0  0
   -5.7617    0.7863    0.1658 C   0  0  0  0  0  0  0  0  0  0  0  0
   -3.0238    1.3446   -0.6654 C   0  0  0  0  0  0  0  0  0  0  0  0
   -2.9169    1.1794    0.6643 C   0  0  0  0  0  0  0  0  0  0  0  0
   -0.9969   -0.7104   -2.7509 O   0  0  0  0  0  0  0  0  0  0  0  0
   -0.6316   -1.2187    1.8452 O   0  0  0  0  0  0  0  0  0  0  0  0
    7.0678    1.5162    0.9911 C   0  0  0  0  0  0  0  0  0  0  0  0
    7.1011    2.0110    2.2814 F   0  0  0  0  0  0  0  0  0  0  0  0
    8.1270    0.6424    0.8156 F   0  0  0  0  0  0  0  0  0  0  0  0
    7.2212    2.5655    0.1014 F   0  0  0  0  0  0  0  0  0  0  0  0
    2.5539    1.4745   -0.1835 H   0  0  0  0  0  0  0  0  0  0  0  0
    4.7030    2.5880    0.1037 H   0  0  0  0  0  0  0  0  0  0  0  0
    6.4468   -1.1137    1.4712 H   0  0  0  0  0  0  0  0  0  0  0  0
    4.3010   -2.2398    1.1662 H   0  0  0  0  0  0  0  0  0  0  0  0
    1.2220    0.0010   -1.3681 H   0  0  0  0  0  0  0  0  0  0  0  0
   -3.1908   -1.9934   -1.5794 H   0  0  0  0  0  0  0  0  0  0  0  0
   -3.7173    0.3677   -2.4979 H   0  0  0  0  0  0  0  0  0  0  0  0
   -5.6603   -0.9615   -1.2706 H   0  0  0  0  0  0  0  0  0  0  0  0
   -5.4688   -1.2568    1.0978 H   0  0  0  0  0  0  0  0  0  0  0  0
   -3.3317   -0.2271    2.2900 H   0  0  0  0  0  0  0  0  0  0  0  0
   -2.9981   -2.2833    0.7559 H   0  0  0  0  0  0  0  0  0  0  0  0
   -5.3658    1.8165    0.2621 H   0  0  0  0  0  0  0  0  0  0  0  0
   -6.8549    0.6057    0.2316 H   0  0  0  0  0  0  0  0  0  0  0  0
   -2.6973    2.2500   -1.1658 H   0  0  0  0  0  0  0  0  0  0  0  0
   -2.4979    1.9423    1.3120 H   0  0  0  0  0  0  0  0  0  0  0  0
  4  5  2  0
  5  6  1  0
  6  7  2  0
  2  7  1  0
  1  8  2  0
  1  9  1  0
 10 11  1  0
 11 12  1  0
 13 12  1  0
 14 13  1  0
 14 15  1  0
 16 15  1  0
 17 16  1  0
 17 18  1  0
 18 10  1  0
 18 13  1  0
 15 19  1  0
 16 19  1  0
 20 21  2  0
 14 20  1  0
 17 21  1  0
 12 22  2  0
 10 23  2  0
  9 11  1  0
  5 24  1  0
  1  2  1  0
 24 25  1  0
  2  3  2  0
 24 26  1  0
  3  4  1  0
 24 27  1  0
  3 28  1  0
  4 29  1  0
  6 30  1  0
  7 31  1  0
  9 32  1  0
 13 33  1  6
 14 34  1  6
 15 35  1  6
 16 36  1  6
 17 37  1  1
 18 38  1  6
 19 39  1  0
 19 40  1  0
 20 41  1  0
 21 42  1  0
M  END
$$$$
