
     RDKit          3D

 42 46  0  0  0  0  0  0  0  0999 V2000
    1.9048   -0.4437   -1.1815 C   0  0  0  0  0  0  0  0  0  0  0  0
    3.2474   -0.3121   -0.5652 C   0  0  0  0  0  0  0  0  0  0  0  0
    3.4331    0.4365    0.6105 C   0  0  0  0  0  0  0  0  0  0  0  0
    4.7011    0.5490    1.1880 C   0  0  0  0  0  0  0  0  0  0  0  0
    5.8129   -0.0724    0.5960 C   0  0  0  0  0  0  0  0  0  0  0  0
    5.6222   -0.8509   -0.5573 C   0  0  0  0  0  0  0  0  0  0  0  0
    4.3545   -0.9648   -1.1350 C   0  0  0  0  0  0  0  0  0  0  0  0
    1.6857   -1.3744   -2.0040 O   0  0  0  0  0  0  0  0  0  0  0  0
    0.8626    0.4981   -0.8880 N   0  0  0  0  0  0  0  0  0  0  0  0
   -1.1729   -0.9805   -0.8577 C   0  0  0  0  0  0  0  0  0  0  0  0
   -0.4886    0.2253   -1.1696 N   0  0  0  0  0  0  0  0  0  0  0  0
   -1.4789    1.2216   -1.3592 C   0  0  0  0  0  0  0  0  0  0  0  0
   -2.8764    0.6873   -1.2629 C   0  0  2  0  0  0  0  0  0  0  0  0
   -3.7158    1.3673   -0.1354 C   0  0  1  0  0  0  0  0  0  0  0  0
   -5.0950    0.6224   -0.1460 C   0  0  1  0  0  0  0  0  0  0  0  0
   -4.8883   -0.8798    0.1924 C   0  0  1  0  0  0  0  0  0  0  0  0
   -3.3671   -1.1687    0.4368 C   0  0  1  0  0  0  0  0  0  0  0  0
   -2.6649   -0.8376   -0.9184 C   0  0  2  0  0  0  0  0  0  0  0  0
   -5.7055    0.0209    1.1233 C   0  0  0  0  0  0  0  0  0  0  0  0
   -2.9988    1.1018    1.1821 C   0  0  0  0  0  0  0  0  0  0  0  0
   -2.8204   -0.1977    1.4756 C   0  0  0  0  0  0  0  0  0  0  0  0
   -1.2015    2.4284   -1.5911 O   0  0  0  0  0  0  0  0  0  0  0  0
   -0.5862   -2.0422   -0.5179 O   0  0  0  0  0  0  0  0  0  0  0  0
    7.1705    0.0089    1.2473 C   0  0  0  0  0  0  0  0  0  0  0  0
    7.3204    1.2115    1.9162 F   0  0  0  0  0  0  0  0  0  0  0  0
    7.3047   -1.0287    2.1507 F   0  0  0  0  0  0  0  0  0  0  0  0
    8.1742   -0.0861    0.2988 F   0  0  0  0  0  0  0  0  0  0  0  0
    2.5975    0.9166    1.1025 H   0  0  0  0  0  0  0  0  0  0  0  0
    4.8109    1.1172    2.1033 H   0  0  0  0  0  0  0  0  0  0  0  0
    6.4540   -1.3740   -1.0124 H   0  0  0  0  0  0  0  0  0  0  0  0
    4.2422   -1.5621   -2.0313 H   0  0  0  0  0  0  0  0  0  0  0  0
    1.1280    1.4655   -0.5968 H   0  0  0  0  0  0  0  0  0  0  0  0
   -3.3803    0.7996   -2.2484 H   0  0  0  0  0  0  0  0  0  0  0  0
   -3.8469    2.4553   -0.3153 H   0  0  0  0  0  0  0  0  0  0  0  0
   -5.7744    0.7683   -1.0132 H   0  0  0  0  0  0  0  0  0  0  0  0
   -5.4557   -1.5468   -0.4918 H   0  0  0  0  0  0  0  0  0  0  0  0
   -3.2040   -2.2242    0.7411 H   0  0  0  0  0  0  0  0  0  0  0  0
   -3.0620   -1.4825   -1.7332 H   0  0  0  0  0  0  0  0  0  0  0  0
   -5.2556    0.3021    2.0958 H   0  0  0  0  0  0  0  0  0  0  0  0
   -6.8002   -0.1466    1.0484 H   0  0  0  0  0  0  0  0  0  0  0  0
   -2.6597    1.8967    1.8380 H   0  0  0  0  0  0  0  0  0  0  0  0
   -2.3273   -0.5250    2.3848 H   0  0  0  0  0  0  0  0  0  0  0  0
  4  5  2  0
  5  6  1  0
  6  7  2  0
  2  7  1  0
  1  8  2  0
  1  9  1  0
 10 11  1  0
 11 12  1  0
 13 12  1  0
 14 13  1  0
 14 15  1  0
 16 15  1  0
 17 16  1  0
 17 18  1  0
 18 10  1  0
 18 13  1  0
 15 19  1  0
 16 19  1  0
 20 21  2  0
 14 20  1  0
 17 21  1  0
 12 22  2  0
 10 23  2  0
  9 11  1  0
  5 24  1  0
  1  2  1  0
 24 25  1  0
  2  3  2  0
 24 26  1  0
  3  4  1  0
 24 27  1  0
  3 28  1  0
  4 29  1  0
  6 30  1  0
  7 31  1  0
  9 32  1  0
 13 33  1  6
 14 34  1  6
 15 35  1  6
 16 36  1  6
 17 37  1  1
 18 38  1  6
 19 39  1  0
 19 40  1  0
 20 41  1  0
 21 42  1  0
M  END
$$$$
