
     RDKit          3D

 68 69  0  0  0  0  0  0  0  0999 V2000
    1.5103   -0.2331    0.1863 C   0  0  0  0  0  0  0  0  0  0  0  0
   -1.4592    0.4336   -0.1668 C   0  0  0  0  0  0  0  0  0  0  0  0
   -0.9062   -0.8767    0.1870 C   0  0  0  0  0  0  0  0  0  0  0  0
    0.3946   -1.1764    0.3030 C   0  0  0  0  0  0  0  0  0  0  0  0
   -2.4892    0.8959    0.2877 O   0  0  0  0  0  0  0  0  0  0  0  0
    2.5944   -0.5005   -0.2979 O   0  0  0  0  0  0  0  0  0  0  0  0
    1.2673    0.9398    0.7890 O   0  0  0  0  0  0  0  0  0  0  0  0
   -0.7797    1.0364   -1.1532 O   0  0  0  0  0  0  0  0  0  0  0  0
   -0.3272    0.0765   -0.3730 C   0  0  0  0  0  0  0  0  0  0  0  0
   -0.9412   -1.1823   -0.8790 C   0  0  0  0  0  0  0  0  0  0  0  0
   -1.1374    1.3183   -0.3513 C   0  0  0  0  0  0  0  0  0  0  0  0
    0.9207    0.0747    0.1740 C   0  0  0  0  0  0  0  0  0  0  0  0
    3.6378    0.0444    1.5327 N   0  0  0  0  0  0  0  0  0  0  0  0
   -0.2076   -1.8298   -1.8269 N   0  0  0  0  0  0  0  0  0  0  0  0
   -2.1903   -1.6445   -0.4391 C   0  0  0  0  0  0  0  0  0  0  0  0
   -2.2248    1.3982    0.5350 C   0  0  0  0  0  0  0  0  0  0  0  0
    1.5988    1.3020    0.7737 C   0  0  0  0  0  0  0  0  0  0  0  0
    1.7808   -1.1790    0.3081 C   0  0  0  0  0  0  0  0  0  0  0  0
   -2.5619    0.2108    1.4023 C   0  0  0  0  0  0  0  0  0  0  0  0
   -3.0919   -0.9678    0.5748 C   0  0  0  0  0  0  0  0  0  0  0  0
    2.7191   -1.1072    1.5253 C   0  0  0  0  0  0  0  0  0  0  0  0
    3.1307    1.1745    0.7340 C   0  0  0  0  0  0  0  0  0  0  0  0
   -0.8728    2.3774   -1.2283 C   0  0  0  0  0  0  0  0  0  0  0  0
    4.9809   -0.3284    1.0956 C   0  0  0  0  0  0  0  0  0  0  0  0
   -0.7105   -2.9646   -2.3511 C   0  0  0  0  0  0  0  0  0  0  0  0
   -2.6703   -2.8321   -1.0203 C   0  0  0  0  0  0  0  0  0  0  0  0
   -3.0050    2.5616    0.5652 C   0  0  0  0  0  0  0  0  0  0  0  0
   -1.9256   -3.5029   -1.9828 C   0  0  0  0  0  0  0  0  0  0  0  0
   -1.6564    3.5307   -1.1923 C   0  0  0  0  0  0  0  0  0  0  0  0
   -2.7162    3.6247   -0.2917 C   0  0  0  0  0  0  0  0  0  0  0  0
    1.2163   -0.8433   -0.4092 C   0  0  0  0  0  0  0  0  0  0  0  0
   -1.2442    0.8774    0.2032 C   0  0  0  0  0  0  0  0  0  0  0  0
   -0.3867    0.2159    1.1908 C   0  0  0  0  0  0  0  0  0  0  0  0
    0.6658   -0.5681    0.9209 C   0  0  0  0  0  0  0  0  0  0  0  0
   -1.7490    1.9751    0.3501 O   0  0  0  0  0  0  0  0  0  0  0  0
    1.6920   -1.9091   -0.7542 O   0  0  0  0  0  0  0  0  0  0  0  0
    1.2657    0.2467   -1.1887 O   0  0  0  0  0  0  0  0  0  0  0  0
   -1.5322    0.0934   -0.8458 O   0  0  0  0  0  0  0  0  0  0  0  0
   -1.6569   -1.6384    0.3638 H   0  0  0  0  0  0  0  0  0  0  0  0
    0.7007   -2.1978    0.4990 H   0  0  0  0  0  0  0  0  0  0  0  0
    2.0949    1.4464    0.6579 H   0  0  0  0  0  0  0  0  0  0  0  0
   -1.2710    1.8707   -1.2999 H   0  0  0  0  0  0  0  0  0  0  0  0
    1.2669    1.4229    1.8127 H   0  0  0  0  0  0  0  0  0  0  0  0
    1.3360    2.2172    0.2374 H   0  0  0  0  0  0  0  0  0  0  0  0
    2.3773   -1.3042   -0.6041 H   0  0  0  0  0  0  0  0  0  0  0  0
    1.1636   -2.0754    0.4312 H   0  0  0  0  0  0  0  0  0  0  0  0
   -3.3298    0.4981    2.1319 H   0  0  0  0  0  0  0  0  0  0  0  0
   -1.6867   -0.0841    1.9948 H   0  0  0  0  0  0  0  0  0  0  0  0
   -3.9934   -0.6390    0.0394 H   0  0  0  0  0  0  0  0  0  0  0  0
   -3.4116   -1.7370    1.2910 H   0  0  0  0  0  0  0  0  0  0  0  0
    2.1033   -1.0375    2.4321 H   0  0  0  0  0  0  0  0  0  0  0  0
    3.2667   -2.0534    1.6212 H   0  0  0  0  0  0  0  0  0  0  0  0
    3.5756    2.0999    1.1189 H   0  0  0  0  0  0  0  0  0  0  0  0
    3.4417    1.0833   -0.3163 H   0  0  0  0  0  0  0  0  0  0  0  0
   -0.0541    2.3038   -1.9403 H   0  0  0  0  0  0  0  0  0  0  0  0
    5.6544    0.5348    1.1401 H   0  0  0  0  0  0  0  0  0  0  0  0
    5.4042   -1.0894    1.7606 H   0  0  0  0  0  0  0  0  0  0  0  0
    4.9884   -0.7214    0.0725 H   0  0  0  0  0  0  0  0  0  0  0  0
   -0.0887   -3.4424   -3.1020 H   0  0  0  0  0  0  0  0  0  0  0  0
   -3.6373   -3.2342   -0.7251 H   0  0  0  0  0  0  0  0  0  0  0  0
   -3.8485    2.6434    1.2464 H   0  0  0  0  0  0  0  0  0  0  0  0
   -2.2890   -4.4173   -2.4371 H   0  0  0  0  0  0  0  0  0  0  0  0
   -1.4418    4.3531   -1.8693 H   0  0  0  0  0  0  0  0  0  0  0  0
   -3.3269    4.5236   -0.2657 H   0  0  0  0  0  0  0  0  0  0  0  0
   -0.6685    0.4111    2.2192 H   0  0  0  0  0  0  0  0  0  0  0  0
    1.1904   -1.0689    1.7266 H   0  0  0  0  0  0  0  0  0  0  0  0
    1.6749   -0.0769   -2.0174 H   0  0  0  0  0  0  0  0  0  0  0  0
   -2.1245    0.6465   -1.3956 H   0  0  0  0  0  0  0  0  0  0  0  0
  2  3  1  0
  3  4  2  0
  4  1  1  0
  5  2  2  0
  6  1  2  0
  7  1  1  0
  8  2  1  0
 10  9  1  0
 11  9  1  0
 12  9  2  3
 13 21  1  0
 14 10  2  0
 15 10  1  0
 16 11  2  0
 17 12  1  0
 18 12  1  0
 19 16  1  0
 20 15  1  0
 21 18  1  0
 22 17  1  0
 23 11  1  0
 24 13  1  0
 25 14  1  0
 26 15  2  0
 27 16  1  0
 28 26  1  0
 29 23  2  0
 30 29  1  0
 22 13  1  0
 20 19  1  0
 27 30  2  0
 25 28  2  0
 32 33  1  0
 33 34  2  0
 34 31  1  0
 35 32  2  0
 36 31  2  0
 37 31  1  0
 38 32  1  0
  3 39  1  0
  4 40  1  0
  7 41  1  0
  8 42  1  0
 17 43  1  0
 17 44  1  0
 18 45  1  0
 18 46  1  0
 19 47  1  0
 19 48  1  0
 20 49  1  0
 20 50  1  0
 21 51  1  0
 21 52  1  0
 22 53  1  0
 22 54  1  0
 23 55  1  0
 24 56  1  0
 24 57  1  0
 24 58  1  0
 25 59  1  0
 26 60  1  0
 27 61  1  0
 28 62  1  0
 29 63  1  0
 30 64  1  0
 33 65  1  0
 34 66  1  0
 37 67  1  0
 38 68  1  0
M  END
$$$$
