
     RDKit          3D

 68 69  0  0  0  0  0  0  0  0999 V2000
    0.4234    1.2260   -1.0313 C   0  0  0  0  0  0  0  0  0  0  0  0
   -0.0082   -0.8041    1.1268 C   0  0  0  0  0  0  0  0  0  0  0  0
   -0.1716   -1.0751   -0.3069 C   0  0  0  0  0  0  0  0  0  0  0  0
    0.0605   -0.1731   -1.2706 C   0  0  0  0  0  0  0  0  0  0  0  0
    0.7177    0.0125    1.6582 O   0  0  0  0  0  0  0  0  0  0  0  0
    1.3326    1.8113   -1.5888 O   0  0  0  0  0  0  0  0  0  0  0  0
   -0.4355    1.8321   -0.2025 O   0  0  0  0  0  0  0  0  0  0  0  0
   -0.7819   -1.6413    1.8358 O   0  0  0  0  0  0  0  0  0  0  0  0
   -0.3137    0.0257    0.8872 C   0  0  0  0  0  0  0  0  0  0  0  0
   -1.0463   -1.2612    1.0127 C   0  0  0  0  0  0  0  0  0  0  0  0
   -1.0875    1.2753    0.7068 C   0  0  0  0  0  0  0  0  0  0  0  0
    1.0422    0.0576    0.7884 C   0  0  0  0  0  0  0  0  0  0  0  0
    3.5873   -0.0099   -0.7056 N   0  0  0  0  0  0  0  0  0  0  0  0
   -0.7261   -1.9923    2.1145 N   0  0  0  0  0  0  0  0  0  0  0  0
   -2.0199   -1.6637    0.0872 C   0  0  0  0  0  0  0  0  0  0  0  0
   -1.7808    1.4644   -0.5010 C   0  0  0  0  0  0  0  0  0  0  0  0
    1.9469   -1.1662    0.7993 C   0  0  0  0  0  0  0  0  0  0  0  0
    1.8794    1.3090    0.5583 C   0  0  0  0  0  0  0  0  0  0  0  0
   -1.7367    0.3867   -1.5561 C   0  0  0  0  0  0  0  0  0  0  0  0
   -2.4852   -0.8818   -1.1250 C   0  0  0  0  0  0  0  0  0  0  0  0
    2.7129    1.1776   -0.7261 C   0  0  0  0  0  0  0  0  0  0  0  0
    2.7904   -1.2304   -0.4852 C   0  0  0  0  0  0  0  0  0  0  0  0
   -1.1626    2.2364    1.7205 C   0  0  0  0  0  0  0  0  0  0  0  0
    4.3333   -0.1110   -1.9592 C   0  0  0  0  0  0  0  0  0  0  0  0
   -1.3647   -3.1632    2.3041 C   0  0  0  0  0  0  0  0  0  0  0  0
   -2.6529   -2.8953    0.3290 C   0  0  0  0  0  0  0  0  0  0  0  0
   -2.5204    2.6380   -0.6909 C   0  0  0  0  0  0  0  0  0  0  0  0
   -2.3233   -3.6550    1.4442 C   0  0  0  0  0  0  0  0  0  0  0  0
   -1.9052    3.4005    1.5224 C   0  0  0  0  0  0  0  0  0  0  0  0
   -2.5782    3.6019    0.3177 C   0  0  0  0  0  0  0  0  0  0  0  0
   -0.9512    0.5857    1.0900 C   0  0  0  0  0  0  0  0  0  0  0  0
    0.4925   -0.2003   -1.4084 C   0  0  0  0  0  0  0  0  0  0  0  0
    0.3209   -1.0780   -0.2451 C   0  0  0  0  0  0  0  0  0  0  0  0
   -0.3643   -0.7360    0.8542 C   0  0  0  0  0  0  0  0  0  0  0  0
   -0.2135    0.7227   -1.7632 O   0  0  0  0  0  0  0  0  0  0  0  0
   -2.0877    0.7844    1.4764 O   0  0  0  0  0  0  0  0  0  0  0  0
   -0.0485    1.5666    0.9504 O   0  0  0  0  0  0  0  0  0  0  0  0
    1.5774   -0.5778   -2.1030 O   0  0  0  0  0  0  0  0  0  0  0  0
   -0.4635   -2.0864   -0.5650 H   0  0  0  0  0  0  0  0  0  0  0  0
    0.0135   -0.4569   -2.3154 H   0  0  0  0  0  0  0  0  0  0  0  0
   -0.0773    2.7383   -0.1056 H   0  0  0  0  0  0  0  0  0  0  0  0
   -0.6097   -1.3833    2.7653 H   0  0  0  0  0  0  0  0  0  0  0  0
    1.4006   -2.1093    0.8749 H   0  0  0  0  0  0  0  0  0  0  0  0
    2.6025   -1.1136    1.6787 H   0  0  0  0  0  0  0  0  0  0  0  0
    2.5432    1.4530    1.4209 H   0  0  0  0  0  0  0  0  0  0  0  0
    1.2814    2.2198    0.4765 H   0  0  0  0  0  0  0  0  0  0  0  0
   -0.6958    0.1564   -1.8125 H   0  0  0  0  0  0  0  0  0  0  0  0
   -2.1902    0.7636   -2.4812 H   0  0  0  0  0  0  0  0  0  0  0  0
   -3.5390   -0.6195   -0.9583 H   0  0  0  0  0  0  0  0  0  0  0  0
   -2.4627   -1.5675   -1.9827 H   0  0  0  0  0  0  0  0  0  0  0  0
    3.3310    2.0778   -0.8270 H   0  0  0  0  0  0  0  0  0  0  0  0
    2.0385    1.1455   -1.5927 H   0  0  0  0  0  0  0  0  0  0  0  0
    3.4636   -2.0926   -0.4055 H   0  0  0  0  0  0  0  0  0  0  0  0
    2.1260   -1.4147   -1.3415 H   0  0  0  0  0  0  0  0  0  0  0  0
   -0.6447    2.0765    2.6624 H   0  0  0  0  0  0  0  0  0  0  0  0
    3.6713   -0.2024   -2.8269 H   0  0  0  0  0  0  0  0  0  0  0  0
    5.0010   -0.9796   -1.9401 H   0  0  0  0  0  0  0  0  0  0  0  0
    4.9668    0.7727   -2.1018 H   0  0  0  0  0  0  0  0  0  0  0  0
   -1.0739   -3.7099    3.1956 H   0  0  0  0  0  0  0  0  0  0  0  0
   -3.4185   -3.2589   -0.3527 H   0  0  0  0  0  0  0  0  0  0  0  0
   -3.0603    2.8069   -1.6191 H   0  0  0  0  0  0  0  0  0  0  0  0
   -2.8097   -4.6035    1.6399 H   0  0  0  0  0  0  0  0  0  0  0  0
   -1.9631    4.1463    2.3098 H   0  0  0  0  0  0  0  0  0  0  0  0
   -3.1569    4.5100    0.1651 H   0  0  0  0  0  0  0  0  0  0  0  0
    0.7496   -2.0690   -0.3348 H   0  0  0  0  0  0  0  0  0  0  0  0
   -0.5430   -1.4579    1.6428 H   0  0  0  0  0  0  0  0  0  0  0  0
   -0.5563    2.3851    1.1232 H   0  0  0  0  0  0  0  0  0  0  0  0
    1.6240    0.0744   -2.8337 H   0  0  0  0  0  0  0  0  0  0  0  0
  2  3  1  0
  3  4  2  0
  4  1  1  0
  5  2  2  0
  6  1  2  0
  7  1  1  0
  8  2  1  0
 10  9  1  0
 11  9  1  0
 12  9  2  3
 13 21  1  0
 14 10  2  0
 15 10  1  0
 16 11  2  0
 17 12  1  0
 18 12  1  0
 19 16  1  0
 20 15  1  0
 21 18  1  0
 22 17  1  0
 23 11  1  0
 24 13  1  0
 25 14  1  0
 26 15  2  0
 27 16  1  0
 28 26  1  0
 29 23  2  0
 30 29  1  0
 22 13  1  0
 20 19  1  0
 27 30  2  0
 25 28  2  0
 32 33  1  0
 33 34  2  0
 34 31  1  0
 35 32  2  0
 36 31  2  0
 37 31  1  0
 38 32  1  0
  3 39  1  0
  4 40  1  0
  7 41  1  0
  8 42  1  0
 17 43  1  0
 17 44  1  0
 18 45  1  0
 18 46  1  0
 19 47  1  0
 19 48  1  0
 20 49  1  0
 20 50  1  0
 21 51  1  0
 21 52  1  0
 22 53  1  0
 22 54  1  0
 23 55  1  0
 24 56  1  0
 24 57  1  0
 24 58  1  0
 25 59  1  0
 26 60  1  0
 27 61  1  0
 28 62  1  0
 29 63  1  0
 30 64  1  0
 33 65  1  0
 34 66  1  0
 37 67  1  0
 38 68  1  0
M  END
$$$$
