
     RDKit          3D

 68 69  0  0  0  0  0  0  0  0999 V2000
    1.4417    0.3961    0.2329 C   0  0  0  0  0  0  0  0  0  0  0  0
   -1.4010    0.1040   -0.5698 C   0  0  0  0  0  0  0  0  0  0  0  0
   -0.7147   -0.8107    0.3481 C   0  0  0  0  0  0  0  0  0  0  0  0
    0.5848   -0.7163    0.6557 C   0  0  0  0  0  0  0  0  0  0  0  0
   -0.9651    0.5872   -1.5948 O   0  0  0  0  0  0  0  0  0  0  0  0
    1.1402    1.5685    0.1390 O   0  0  0  0  0  0  0  0  0  0  0  0
    2.6859   -0.0510    0.0040 O   0  0  0  0  0  0  0  0  0  0  0  0
   -2.6584    0.3101   -0.1501 O   0  0  0  0  0  0  0  0  0  0  0  0
   -0.3657   -0.0087    0.1198 C   0  0  0  0  0  0  0  0  0  0  0  0
   -1.1796   -1.1870    0.5221 C   0  0  0  0  0  0  0  0  0  0  0  0
   -0.8936    1.3494    0.3906 C   0  0  0  0  0  0  0  0  0  0  0  0
    0.7942   -0.1516   -0.5770 C   0  0  0  0  0  0  0  0  0  0  0  0
    3.7017   -0.4866   -0.9103 N   0  0  0  0  0  0  0  0  0  0  0  0
   -0.5252   -2.0878    1.3074 N   0  0  0  0  0  0  0  0  0  0  0  0
   -2.5305   -1.3248    0.1715 C   0  0  0  0  0  0  0  0  0  0  0  0
   -2.0217    1.7864   -0.3246 C   0  0  0  0  0  0  0  0  0  0  0  0
    1.6837    0.9855   -1.0605 C   0  0  0  0  0  0  0  0  0  0  0  0
    1.4123   -1.4761   -1.0015 C   0  0  0  0  0  0  0  0  0  0  0  0
   -2.6749    0.8554   -1.3165 C   0  0  0  0  0  0  0  0  0  0  0  0
   -3.3556   -0.3363   -0.6296 C   0  0  0  0  0  0  0  0  0  0  0  0
    2.8425   -1.5980   -0.4518 C   0  0  0  0  0  0  0  0  0  0  0  0
    3.1160    0.8121   -0.5245 C   0  0  0  0  0  0  0  0  0  0  0  0
   -0.3213    2.1721    1.3687 C   0  0  0  0  0  0  0  0  0  0  0  0
    5.0503   -0.6243   -0.3637 C   0  0  0  0  0  0  0  0  0  0  0  0
   -1.2089   -3.1671    1.7359 C   0  0  0  0  0  0  0  0  0  0  0  0
   -3.1975   -2.4687    0.6456 C   0  0  0  0  0  0  0  0  0  0  0  0
   -2.5390    3.0643   -0.0781 C   0  0  0  0  0  0  0  0  0  0  0  0
   -2.5332   -3.4031    1.4309 C   0  0  0  0  0  0  0  0  0  0  0  0
   -0.8455    3.4421    1.6078 C   0  0  0  0  0  0  0  0  0  0  0  0
   -1.9486    3.8888    0.8813 C   0  0  0  0  0  0  0  0  0  0  0  0
    1.4723   -0.0448   -0.3141 C   0  0  0  0  0  0  0  0  0  0  0  0
   -1.4518    0.2544    0.5504 C   0  0  0  0  0  0  0  0  0  0  0  0
   -0.7390   -1.0092    0.3430 C   0  0  0  0  0  0  0  0  0  0  0  0
    0.5282   -1.1394   -0.0725 C   0  0  0  0  0  0  0  0  0  0  0  0
   -2.2726    0.4501    1.4274 O   0  0  0  0  0  0  0  0  0  0  0  0
    2.3127   -0.0376   -1.1944 O   0  0  0  0  0  0  0  0  0  0  0  0
    1.4096    0.9139    0.6214 O   0  0  0  0  0  0  0  0  0  0  0  0
   -1.2063    1.1555   -0.4119 O   0  0  0  0  0  0  0  0  0  0  0  0
   -1.3200   -1.6149    0.7486 H   0  0  0  0  0  0  0  0  0  0  0  0
    1.0591   -1.4626    1.2814 H   0  0  0  0  0  0  0  0  0  0  0  0
    3.1680    0.7527   -0.2835 H   0  0  0  0  0  0  0  0  0  0  0  0
   -3.0204    0.9367   -0.8114 H   0  0  0  0  0  0  0  0  0  0  0  0
    1.3217    1.9758   -0.7744 H   0  0  0  0  0  0  0  0  0  0  0  0
    1.6973    0.9780   -2.1587 H   0  0  0  0  0  0  0  0  0  0  0  0
    0.8370   -2.3525   -0.6966 H   0  0  0  0  0  0  0  0  0  0  0  0
    1.4368   -1.5128   -2.0993 H   0  0  0  0  0  0  0  0  0  0  0  0
   -1.9368    0.5153   -2.0537 H   0  0  0  0  0  0  0  0  0  0  0  0
   -3.4318    1.4056   -1.8900 H   0  0  0  0  0  0  0  0  0  0  0  0
   -3.8708   -0.9039   -1.4165 H   0  0  0  0  0  0  0  0  0  0  0  0
   -4.1339    0.0532    0.0416 H   0  0  0  0  0  0  0  0  0  0  0  0
    3.2631   -2.5476   -0.8046 H   0  0  0  0  0  0  0  0  0  0  0  0
    2.8129   -1.6407    0.6456 H   0  0  0  0  0  0  0  0  0  0  0  0
    3.1120    0.9263    0.5681 H   0  0  0  0  0  0  0  0  0  0  0  0
    3.7323    1.6219   -0.9341 H   0  0  0  0  0  0  0  0  0  0  0  0
    0.5326    1.8224    1.9438 H   0  0  0  0  0  0  0  0  0  0  0  0
    5.5003   -1.5703   -0.6849 H   0  0  0  0  0  0  0  0  0  0  0  0
    5.0600   -0.5923    0.7320 H   0  0  0  0  0  0  0  0  0  0  0  0
    5.6996    0.1752   -0.7375 H   0  0  0  0  0  0  0  0  0  0  0  0
   -0.6430   -3.8581    2.3534 H   0  0  0  0  0  0  0  0  0  0  0  0
   -4.2479   -2.6271    0.4099 H   0  0  0  0  0  0  0  0  0  0  0  0
   -3.4089    3.4227   -0.6229 H   0  0  0  0  0  0  0  0  0  0  0  0
   -3.0402   -4.2861    1.8022 H   0  0  0  0  0  0  0  0  0  0  0  0
   -0.3958    4.0808    2.3632 H   0  0  0  0  0  0  0  0  0  0  0  0
   -2.3566    4.8786    1.0700 H   0  0  0  0  0  0  0  0  0  0  0  0
   -1.3319   -1.8901    0.5610 H   0  0  0  0  0  0  0  0  0  0  0  0
    0.9380   -2.1246   -0.2642 H   0  0  0  0  0  0  0  0  0  0  0  0
    2.1032    1.5501    0.3511 H   0  0  0  0  0  0  0  0  0  0  0  0
   -1.7624    1.9217   -0.1618 H   0  0  0  0  0  0  0  0  0  0  0  0
  2  3  1  0
  3  4  2  0
  4  1  1  0
  5  2  2  0
  6  1  2  0
  7  1  1  0
  8  2  1  0
 10  9  1  0
 11  9  1  0
 12  9  2  3
 13 21  1  0
 14 10  2  0
 15 10  1  0
 16 11  2  0
 17 12  1  0
 18 12  1  0
 19 16  1  0
 20 15  1  0
 21 18  1  0
 22 17  1  0
 23 11  1  0
 24 13  1  0
 25 14  1  0
 26 15  2  0
 27 16  1  0
 28 26  1  0
 29 23  2  0
 30 29  1  0
 22 13  1  0
 20 19  1  0
 27 30  2  0
 25 28  2  0
 32 33  1  0
 33 34  2  0
 34 31  1  0
 35 32  2  0
 36 31  2  0
 37 31  1  0
 38 32  1  0
  3 39  1  0
  4 40  1  0
  7 41  1  0
  8 42  1  0
 17 43  1  0
 17 44  1  0
 18 45  1  0
 18 46  1  0
 19 47  1  0
 19 48  1  0
 20 49  1  0
 20 50  1  0
 21 51  1  0
 21 52  1  0
 22 53  1  0
 22 54  1  0
 23 55  1  0
 24 56  1  0
 24 57  1  0
 24 58  1  0
 25 59  1  0
 26 60  1  0
 27 61  1  0
 28 62  1  0
 29 63  1  0
 30 64  1  0
 33 65  1  0
 34 66  1  0
 37 67  1  0
 38 68  1  0
M  END
$$$$
