
     RDKit          3D

 63 62  0  0  0  0  0  0  0  0999 V2000
   -1.7233    0.1311    0.0007 C   0  0  0  0  0  0  0  0  0  0  0  0
   -2.2293    1.1299   -0.6167 N   0  0  0  0  0  0  0  0  0  0  0  0
   -0.3647   -0.0049    0.0981 N   0  0  0  0  0  0  0  0  0  0  0  0
   -2.2695   -0.9439    0.6449 N   0  0  0  0  0  0  0  0  0  0  0  0
    0.5205    0.9230   -0.5852 C   0  0  0  0  0  0  0  0  0  0  0  0
    1.9531    0.5169   -0.3299 C   0  0  0  0  0  0  0  0  0  0  0  0
   -3.6530    1.2911   -0.7997 C   0  0  0  0  0  0  0  0  0  0  0  0
   -3.6327   -1.0475    1.1050 C   0  0  0  0  0  0  0  0  0  0  0  0
    2.5575    0.7927    0.9056 C   0  0  0  0  0  0  0  0  0  0  0  0
    2.6871   -0.1722   -1.3062 C   0  0  0  0  0  0  0  0  0  0  0  0
    3.8736    0.4009    1.1538 C   0  0  0  0  0  0  0  0  0  0  0  0
    4.0037   -0.5629   -1.0560 C   0  0  0  0  0  0  0  0  0  0  0  0
    4.5965   -0.2754    0.1725 C   0  0  0  0  0  0  0  0  0  0  0  0
   -0.1898   -0.4048   -0.0938 S   0  0  0  0  0  0  0  0  0  0  0  0
   -0.6134   -1.2257    1.0117 O   0  0  0  0  0  0  0  0  0  0  0  0
   -0.3434   -0.7795   -1.4765 O   0  0  0  0  0  0  0  0  0  0  0  0
   -0.8742    1.0305    0.1191 O   0  0  0  0  0  0  0  0  0  0  0  0
    1.3596   -0.0413    0.1096 O   0  0  0  0  0  0  0  0  0  0  0  0
   -1.7186   -0.1219    0.0578 C   0  0  0  0  0  0  0  0  0  0  0  0
   -2.2657    0.5301   -0.8963 N   0  0  0  0  0  0  0  0  0  0  0  0
   -0.3588   -0.1069    0.2142 N   0  0  0  0  0  0  0  0  0  0  0  0
   -2.2167   -0.9148    1.0538 N   0  0  0  0  0  0  0  0  0  0  0  0
    0.4887    0.5603   -0.7598 C   0  0  0  0  0  0  0  0  0  0  0  0
    1.9345    0.3897   -0.3558 C   0  0  0  0  0  0  0  0  0  0  0  0
   -3.6888    0.5040   -1.1415 C   0  0  0  0  0  0  0  0  0  0  0  0
   -3.5886   -0.9487    1.4985 C   0  0  0  0  0  0  0  0  0  0  0  0
    2.7508   -0.5538   -0.9965 C   0  0  0  0  0  0  0  0  0  0  0  0
    2.4706    1.1503    0.6940 C   0  0  0  0  0  0  0  0  0  0  0  0
    4.0799   -0.7217   -0.6037 C   0  0  0  0  0  0  0  0  0  0  0  0
    3.7993    0.9804    1.0854 C   0  0  0  0  0  0  0  0  0  0  0  0
    4.6035    0.0454    0.4360 C   0  0  0  0  0  0  0  0  0  0  0  0
   -0.0653   -0.9638   -0.0292 H   0  0  0  0  0  0  0  0  0  0  0  0
   -1.6234   -1.2923    1.3452 H   0  0  0  0  0  0  0  0  0  0  0  0
    0.3660    1.9467   -0.2230 H   0  0  0  0  0  0  0  0  0  0  0  0
    0.3188    0.9221   -1.6634 H   0  0  0  0  0  0  0  0  0  0  0  0
   -3.8302    2.1638   -1.4370 H   0  0  0  0  0  0  0  0  0  0  0  0
   -4.1664    1.4823    0.1465 H   0  0  0  0  0  0  0  0  0  0  0  0
   -4.0974    0.4339   -1.3134 H   0  0  0  0  0  0  0  0  0  0  0  0
   -4.3340   -1.1192    0.2707 H   0  0  0  0  0  0  0  0  0  0  0  0
   -3.7457   -1.9626    1.6957 H   0  0  0  0  0  0  0  0  0  0  0  0
   -3.8973   -0.2039    1.7486 H   0  0  0  0  0  0  0  0  0  0  0  0
    1.9969    1.3122    1.6807 H   0  0  0  0  0  0  0  0  0  0  0  0
    2.2370   -0.4075   -2.2685 H   0  0  0  0  0  0  0  0  0  0  0  0
    4.3331    0.6212    2.1137 H   0  0  0  0  0  0  0  0  0  0  0  0
    4.5670   -1.0932   -1.8197 H   0  0  0  0  0  0  0  0  0  0  0  0
    5.6216   -0.5802    0.3661 H   0  0  0  0  0  0  0  0  0  0  0  0
   -1.0343    1.1352    1.0804 H   0  0  0  0  0  0  0  0  0  0  0  0
    1.6955    0.2857   -0.7505 H   0  0  0  0  0  0  0  0  0  0  0  0
    0.0085   -1.0172    0.4627 H   0  0  0  0  0  0  0  0  0  0  0  0
   -1.5795   -0.9201    1.8432 H   0  0  0  0  0  0  0  0  0  0  0  0
    0.2530    1.6304   -0.8127 H   0  0  0  0  0  0  0  0  0  0  0  0
    0.3286    0.1391   -1.7599 H   0  0  0  0  0  0  0  0  0  0  0  0
   -4.2500    0.9932   -0.3407 H   0  0  0  0  0  0  0  0  0  0  0  0
   -3.8987    1.0619   -2.0601 H   0  0  0  0  0  0  0  0  0  0  0  0
   -4.0556   -0.5136   -1.3033 H   0  0  0  0  0  0  0  0  0  0  0  0
   -4.2462   -1.3815    0.7413 H   0  0  0  0  0  0  0  0  0  0  0  0
   -3.9385    0.0498    1.7755 H   0  0  0  0  0  0  0  0  0  0  0  0
   -3.6645   -1.5842    2.3870 H   0  0  0  0  0  0  0  0  0  0  0  0
    2.3554   -1.1631   -1.8068 H   0  0  0  0  0  0  0  0  0  0  0  0
    1.8467    1.8760    1.2126 H   0  0  0  0  0  0  0  0  0  0  0  0
    4.7071   -1.4522   -1.1081 H   0  0  0  0  0  0  0  0  0  0  0  0
    4.2053    1.5757    1.8990 H   0  0  0  0  0  0  0  0  0  0  0  0
    5.6382   -0.0866    0.7411 H   0  0  0  0  0  0  0  0  0  0  0  0
  2  1  2  0
  3  1  1  0
  4  1  1  0
  5  3  1  0
  6  5  1  0
  7  2  1  0
  8  4  1  0
  9  6  2  0
 10  6  1  0
 11  9  1  0
 12 10  2  0
 13 12  1  0
 11 13  2  0
 15 14  2  0
 16 14  2  0
 17 14  1  0
 18 14  1  0
 20 19  2  0
 21 19  1  0
 22 19  1  0
 23 21  1  0
 24 23  1  0
 25 20  1  0
 26 22  1  0
 27 24  2  0
 28 24  1  0
 29 27  1  0
 30 28  2  0
 31 30  1  0
 29 31  2  0
  3 32  1  0
  4 33  1  0
  5 34  1  0
  5 35  1  0
  7 36  1  0
  7 37  1  0
  7 38  1  0
  8 39  1  0
  8 40  1  0
  8 41  1  0
  9 42  1  0
 10 43  1  0
 11 44  1  0
 12 45  1  0
 13 46  1  0
 17 47  1  0
 18 48  1  0
 21 49  1  0
 22 50  1  0
 23 51  1  0
 23 52  1  0
 25 53  1  0
 25 54  1  0
 25 55  1  0
 26 56  1  0
 26 57  1  0
 26 58  1  0
 27 59  1  0
 28 60  1  0
 29 61  1  0
 30 62  1  0
 31 63  1  0
M  END
$$$$
