
     RDKit          3D

 63 62  0  0  0  0  0  0  0  0999 V2000
    1.5204   -0.0469   -0.0787 C   0  0  0  0  0  0  0  0  0  0  0  0
    1.5603    0.4688    1.0948 N   0  0  0  0  0  0  0  0  0  0  0  0
    0.7571   -1.1394   -0.3682 N   0  0  0  0  0  0  0  0  0  0  0  0
    2.1774    0.3871   -1.2042 N   0  0  0  0  0  0  0  0  0  0  0  0
   -0.2825   -1.6272    0.5199 C   0  0  0  0  0  0  0  0  0  0  0  0
   -1.5382   -0.7954    0.3903 C   0  0  0  0  0  0  0  0  0  0  0  0
    2.4004    1.6127    1.3949 C   0  0  0  0  0  0  0  0  0  0  0  0
    3.0916   -0.4892   -1.9193 C   0  0  0  0  0  0  0  0  0  0  0  0
   -1.8742    0.1178    1.4045 C   0  0  0  0  0  0  0  0  0  0  0  0
   -2.3752   -0.8974   -0.7367 C   0  0  0  0  0  0  0  0  0  0  0  0
   -3.0312    0.8914    1.3170 C   0  0  0  0  0  0  0  0  0  0  0  0
   -3.5273   -0.1146   -0.8285 C   0  0  0  0  0  0  0  0  0  0  0  0
   -3.8564    0.7741    0.2008 C   0  0  0  0  0  0  0  0  0  0  0  0
   -0.0471    0.3942    0.2127 S   0  0  0  0  0  0  0  0  0  0  0  0
   -0.7833    0.4106    1.4518 O   0  0  0  0  0  0  0  0  0  0  0  0
    0.5641    1.5586   -0.3768 O   0  0  0  0  0  0  0  0  0  0  0  0
   -1.0145   -0.2787   -0.8755 O   0  0  0  0  0  0  0  0  0  0  0  0
    1.1077   -0.7116    0.3276 O   0  0  0  0  0  0  0  0  0  0  0  0
   -1.8508   -0.5271   -0.0579 C   0  0  0  0  0  0  0  0  0  0  0  0
   -2.3244   -0.9096   -1.1890 N   0  0  0  0  0  0  0  0  0  0  0  0
   -0.5736   -0.0576    0.0539 N   0  0  0  0  0  0  0  0  0  0  0  0
   -2.4804   -0.5881    1.1587 N   0  0  0  0  0  0  0  0  0  0  0  0
    0.3333   -0.1224   -1.0769 C   0  0  0  0  0  0  0  0  0  0  0  0
    1.7268    0.2576   -0.6364 C   0  0  0  0  0  0  0  0  0  0  0  0
   -3.6878   -1.4046   -1.2688 C   0  0  0  0  0  0  0  0  0  0  0  0
   -2.4204    0.4840    2.1306 C   0  0  0  0  0  0  0  0  0  0  0  0
    2.7092   -0.7277   -0.4531 C   0  0  0  0  0  0  0  0  0  0  0  0
    2.0550    1.5989   -0.3767 C   0  0  0  0  0  0  0  0  0  0  0  0
    3.9974   -0.3738   -0.0475 C   0  0  0  0  0  0  0  0  0  0  0  0
    3.3440    1.9484    0.0315 C   0  0  0  0  0  0  0  0  0  0  0  0
    4.3162    0.9636    0.1941 C   0  0  0  0  0  0  0  0  0  0  0  0
    0.4757   -1.1507   -1.3434 H   0  0  0  0  0  0  0  0  0  0  0  0
    2.5914    1.3020   -1.0767 H   0  0  0  0  0  0  0  0  0  0  0  0
   -0.5266   -2.6628    0.2365 H   0  0  0  0  0  0  0  0  0  0  0  0
    0.0665   -1.6681    1.5612 H   0  0  0  0  0  0  0  0  0  0  0  0
    3.3032    1.6751    0.7760 H   0  0  0  0  0  0  0  0  0  0  0  0
    2.7665    1.5134    2.4272 H   0  0  0  0  0  0  0  0  0  0  0  0
    1.8365    2.5463    1.3063 H   0  0  0  0  0  0  0  0  0  0  0  0
    2.6406   -1.4614   -2.1505 H   0  0  0  0  0  0  0  0  0  0  0  0
    3.9957   -0.6587   -1.3229 H   0  0  0  0  0  0  0  0  0  0  0  0
    3.3794   -0.0163   -2.8597 H   0  0  0  0  0  0  0  0  0  0  0  0
   -1.2177    0.2311    2.2683 H   0  0  0  0  0  0  0  0  0  0  0  0
   -2.1302   -1.5848   -1.5446 H   0  0  0  0  0  0  0  0  0  0  0  0
   -3.2835    1.5803    2.1249 H   0  0  0  0  0  0  0  0  0  0  0  0
   -4.1733   -0.1749   -1.7052 H   0  0  0  0  0  0  0  0  0  0  0  0
   -4.7462    1.3877    0.1161 H   0  0  0  0  0  0  0  0  0  0  0  0
   -1.6093   -0.8887   -0.3924 H   0  0  0  0  0  0  0  0  0  0  0  0
    1.7824   -0.4845   -0.3474 H   0  0  0  0  0  0  0  0  0  0  0  0
   -0.1392   -0.3453    0.9242 H   0  0  0  0  0  0  0  0  0  0  0  0
   -3.4133   -0.9817    1.0949 H   0  0  0  0  0  0  0  0  0  0  0  0
    0.3456   -1.1355   -1.5061 H   0  0  0  0  0  0  0  0  0  0  0  0
    0.0044    0.5587   -1.8749 H   0  0  0  0  0  0  0  0  0  0  0  0
   -3.8156   -2.3350   -0.7002 H   0  0  0  0  0  0  0  0  0  0  0  0
   -3.9232   -1.6210   -2.3173 H   0  0  0  0  0  0  0  0  0  0  0  0
   -4.4092   -0.6573   -0.9167 H   0  0  0  0  0  0  0  0  0  0  0  0
   -1.3924    0.6956    2.4484 H   0  0  0  0  0  0  0  0  0  0  0  0
   -2.9888    0.1974    3.0217 H   0  0  0  0  0  0  0  0  0  0  0  0
   -2.8485    1.4028    1.7219 H   0  0  0  0  0  0  0  0  0  0  0  0
    2.4716   -1.7760   -0.6278 H   0  0  0  0  0  0  0  0  0  0  0  0
    1.3027    2.3775   -0.5026 H   0  0  0  0  0  0  0  0  0  0  0  0
    4.7553   -1.1463    0.0714 H   0  0  0  0  0  0  0  0  0  0  0  0
    3.5808    2.9921    0.1994 H   0  0  0  0  0  0  0  0  0  0  0  0
    5.3250    1.2322    0.5011 H   0  0  0  0  0  0  0  0  0  0  0  0
  2  1  2  0
  3  1  1  0
  4  1  1  0
  5  3  1  0
  6  5  1  0
  7  2  1  0
  8  4  1  0
  9  6  2  0
 10  6  1  0
 11  9  1  0
 12 10  2  0
 13 12  1  0
 11 13  2  0
 15 14  2  0
 16 14  2  0
 17 14  1  0
 18 14  1  0
 20 19  2  0
 21 19  1  0
 22 19  1  0
 23 21  1  0
 24 23  1  0
 25 20  1  0
 26 22  1  0
 27 24  2  0
 28 24  1  0
 29 27  1  0
 30 28  2  0
 31 30  1  0
 29 31  2  0
  3 32  1  0
  4 33  1  0
  5 34  1  0
  5 35  1  0
  7 36  1  0
  7 37  1  0
  7 38  1  0
  8 39  1  0
  8 40  1  0
  8 41  1  0
  9 42  1  0
 10 43  1  0
 11 44  1  0
 12 45  1  0
 13 46  1  0
 17 47  1  0
 18 48  1  0
 21 49  1  0
 22 50  1  0
 23 51  1  0
 23 52  1  0
 25 53  1  0
 25 54  1  0
 25 55  1  0
 26 56  1  0
 26 57  1  0
 26 58  1  0
 27 59  1  0
 28 60  1  0
 29 61  1  0
 30 62  1  0
 31 63  1  0
M  END
$$$$
