
     RDKit          3D

 63 62  0  0  0  0  0  0  0  0999 V2000
   -1.7143   -0.1818   -0.0554 C   0  0  0  0  0  0  0  0  0  0  0  0
   -2.2690    0.5172   -0.9711 N   0  0  0  0  0  0  0  0  0  0  0  0
   -0.3571   -0.1421    0.1182 N   0  0  0  0  0  0  0  0  0  0  0  0
   -2.2012   -1.0504    0.8813 N   0  0  0  0  0  0  0  0  0  0  0  0
    0.4829    0.6105   -0.7982 C   0  0  0  0  0  0  0  0  0  0  0  0
    1.9273    0.4607   -0.3806 C   0  0  0  0  0  0  0  0  0  0  0  0
   -3.6886    0.4708   -1.2336 C   0  0  0  0  0  0  0  0  0  0  0  0
   -3.5752   -1.1464    1.3098 C   0  0  0  0  0  0  0  0  0  0  0  0
    2.7885   -0.4004   -1.0752 C   0  0  0  0  0  0  0  0  0  0  0  0
    2.4182    1.1588    0.7330 C   0  0  0  0  0  0  0  0  0  0  0  0
    4.1171   -0.5477   -0.6727 C   0  0  0  0  0  0  0  0  0  0  0  0
    3.7464    1.0095    1.1342 C   0  0  0  0  0  0  0  0  0  0  0  0
    4.5954    0.1575    0.4302 C   0  0  0  0  0  0  0  0  0  0  0  0
   -0.3219    0.2671   -0.1819 S   0  0  0  0  0  0  0  0  0  0  0  0
   -0.1783    0.6615   -1.5599 O   0  0  0  0  0  0  0  0  0  0  0  0
   -1.4273    0.6596    0.6545 O   0  0  0  0  0  0  0  0  0  0  0  0
   -0.2399   -1.3329   -0.1032 O   0  0  0  0  0  0  0  0  0  0  0  0
    1.0417    0.6830    0.5539 O   0  0  0  0  0  0  0  0  0  0  0  0
    1.7135   -0.1742   -0.0537 C   0  0  0  0  0  0  0  0  0  0  0  0
    2.1731   -0.3307   -1.2365 N   0  0  0  0  0  0  0  0  0  0  0  0
    0.3691   -0.0161    0.1500 N   0  0  0  0  0  0  0  0  0  0  0  0
    2.3013   -0.1294    1.1795 N   0  0  0  0  0  0  0  0  0  0  0  0
   -0.5630   -0.1312   -0.9584 C   0  0  0  0  0  0  0  0  0  0  0  0
   -1.9688    0.0733   -0.4442 C   0  0  0  0  0  0  0  0  0  0  0  0
    3.5746   -0.5566   -1.5031 C   0  0  0  0  0  0  0  0  0  0  0  0
    3.7025    0.0888    1.4405 C   0  0  0  0  0  0  0  0  0  0  0  0
   -2.4296    1.3629   -0.1383 C   0  0  0  0  0  0  0  0  0  0  0  0
   -2.8199   -1.0203   -0.2308 C   0  0  0  0  0  0  0  0  0  0  0  0
   -3.7205    1.5552    0.3554 C   0  0  0  0  0  0  0  0  0  0  0  0
   -4.1108   -0.8256    0.2635 C   0  0  0  0  0  0  0  0  0  0  0  0
   -4.5606    0.4615    0.5550 C   0  0  0  0  0  0  0  0  0  0  0  0
    0.0321   -1.0570    0.3102 H   0  0  0  0  0  0  0  0  0  0  0  0
   -1.5701   -1.0927    1.6745 H   0  0  0  0  0  0  0  0  0  0  0  0
    0.3507    0.2473   -1.8249 H   0  0  0  0  0  0  0  0  0  0  0  0
    0.2142    1.6739   -0.7889 H   0  0  0  0  0  0  0  0  0  0  0  0
   -4.0269   -0.5431   -1.4668 H   0  0  0  0  0  0  0  0  0  0  0  0
   -4.2697    0.8910   -0.4083 H   0  0  0  0  0  0  0  0  0  0  0  0
   -3.9049    1.0832   -2.1153 H   0  0  0  0  0  0  0  0  0  0  0  0
   -3.9516   -0.1774    1.6495 H   0  0  0  0  0  0  0  0  0  0  0  0
   -3.6430   -1.8415    2.1539 H   0  0  0  0  0  0  0  0  0  0  0  0
   -4.2163   -1.5437    0.5196 H   0  0  0  0  0  0  0  0  0  0  0  0
    2.4293   -0.9603   -1.9359 H   0  0  0  0  0  0  0  0  0  0  0  0
    1.7593    1.8195    1.2928 H   0  0  0  0  0  0  0  0  0  0  0  0
    4.7795   -1.2139   -1.2195 H   0  0  0  0  0  0  0  0  0  0  0  0
    4.1172    1.5564    1.9968 H   0  0  0  0  0  0  0  0  0  0  0  0
    5.6299    0.0415    0.7424 H   0  0  0  0  0  0  0  0  0  0  0  0
   -0.6267   -1.6000    0.7565 H   0  0  0  0  0  0  0  0  0  0  0  0
    1.7525    0.6617   -0.1199 H   0  0  0  0  0  0  0  0  0  0  0  0
    0.0425   -0.5242    0.9623 H   0  0  0  0  0  0  0  0  0  0  0  0
    1.7244    0.4059    1.8192 H   0  0  0  0  0  0  0  0  0  0  0  0
   -0.4774   -1.1175   -1.4299 H   0  0  0  0  0  0  0  0  0  0  0  0
   -0.3482    0.6204   -1.7277 H   0  0  0  0  0  0  0  0  0  0  0  0
    4.1810    0.3217   -1.2661 H   0  0  0  0  0  0  0  0  0  0  0  0
    3.9521   -1.4392   -0.9785 H   0  0  0  0  0  0  0  0  0  0  0  0
    3.7038   -0.7502   -2.5733 H   0  0  0  0  0  0  0  0  0  0  0  0
    3.8567    0.1922    2.5196 H   0  0  0  0  0  0  0  0  0  0  0  0
    4.0543    1.0096    0.9674 H   0  0  0  0  0  0  0  0  0  0  0  0
    4.3095   -0.7582    1.1126 H   0  0  0  0  0  0  0  0  0  0  0  0
   -1.7765    2.2215   -0.2824 H   0  0  0  0  0  0  0  0  0  0  0  0
   -2.4822   -2.0312   -0.4502 H   0  0  0  0  0  0  0  0  0  0  0  0
   -4.0690    2.5583    0.5867 H   0  0  0  0  0  0  0  0  0  0  0  0
   -4.7658   -1.6783    0.4223 H   0  0  0  0  0  0  0  0  0  0  0  0
   -5.5661    0.6117    0.9392 H   0  0  0  0  0  0  0  0  0  0  0  0
  2  1  2  0
  3  1  1  0
  4  1  1  0
  5  3  1  0
  6  5  1  0
  7  2  1  0
  8  4  1  0
  9  6  2  0
 10  6  1  0
 11  9  1  0
 12 10  2  0
 13 12  1  0
 11 13  2  0
 15 14  2  0
 16 14  2  0
 17 14  1  0
 18 14  1  0
 20 19  2  0
 21 19  1  0
 22 19  1  0
 23 21  1  0
 24 23  1  0
 25 20  1  0
 26 22  1  0
 27 24  2  0
 28 24  1  0
 29 27  1  0
 30 28  2  0
 31 30  1  0
 29 31  2  0
  3 32  1  0
  4 33  1  0
  5 34  1  0
  5 35  1  0
  7 36  1  0
  7 37  1  0
  7 38  1  0
  8 39  1  0
  8 40  1  0
  8 41  1  0
  9 42  1  0
 10 43  1  0
 11 44  1  0
 12 45  1  0
 13 46  1  0
 17 47  1  0
 18 48  1  0
 21 49  1  0
 22 50  1  0
 23 51  1  0
 23 52  1  0
 25 53  1  0
 25 54  1  0
 25 55  1  0
 26 56  1  0
 26 57  1  0
 26 58  1  0
 27 59  1  0
 28 60  1  0
 29 61  1  0
 30 62  1  0
 31 63  1  0
M  END
$$$$
