
     RDKit          3D

 63 62  0  0  0  0  0  0  0  0999 V2000
   -1.8705    0.6065    0.1223 C   0  0  0  0  0  0  0  0  0  0  0  0
   -2.6068    0.3842   -0.9079 N   0  0  0  0  0  0  0  0  0  0  0  0
   -0.5142    0.5759    0.0361 N   0  0  0  0  0  0  0  0  0  0  0  0
   -2.3050    0.8512    1.3996 N   0  0  0  0  0  0  0  0  0  0  0  0
    0.1849    0.3548   -1.2124 C   0  0  0  0  0  0  0  0  0  0  0  0
    1.5780   -0.1467   -0.9034 C   0  0  0  0  0  0  0  0  0  0  0  0
   -4.0533    0.3162   -0.7650 C   0  0  0  0  0  0  0  0  0  0  0  0
   -1.6014    0.3477    2.5674 C   0  0  0  0  0  0  0  0  0  0  0  0
    2.7107    0.6321   -1.1776 C   0  0  0  0  0  0  0  0  0  0  0  0
    1.7512   -1.4192   -0.3326 C   0  0  0  0  0  0  0  0  0  0  0  0
    3.9887    0.1516   -0.8778 C   0  0  0  0  0  0  0  0  0  0  0  0
    3.0275   -1.8962   -0.0296 C   0  0  0  0  0  0  0  0  0  0  0  0
    4.1471   -1.1097   -0.3033 C   0  0  0  0  0  0  0  0  0  0  0  0
   -0.1424    0.2566    0.2726 S   0  0  0  0  0  0  0  0  0  0  0  0
   -0.0230   -0.3336    1.5808 O   0  0  0  0  0  0  0  0  0  0  0  0
   -1.0041    1.3767   -0.0140 O   0  0  0  0  0  0  0  0  0  0  0  0
   -0.5672   -0.9151   -0.7373 O   0  0  0  0  0  0  0  0  0  0  0  0
    1.3447    0.5942   -0.2267 O   0  0  0  0  0  0  0  0  0  0  0  0
   -1.8201    0.4708    0.5860 C   0  0  0  0  0  0  0  0  0  0  0  0
   -2.2048    0.2382    1.7922 N   0  0  0  0  0  0  0  0  0  0  0  0
   -0.5522    0.1757    0.1778 N   0  0  0  0  0  0  0  0  0  0  0  0
   -2.5667    1.0263   -0.4225 N   0  0  0  0  0  0  0  0  0  0  0  0
    0.4550   -0.2444    1.1357 C   0  0  0  0  0  0  0  0  0  0  0  0
    1.7742   -0.4374    0.4266 C   0  0  0  0  0  0  0  0  0  0  0  0
   -3.5415    0.6171    2.2113 C   0  0  0  0  0  0  0  0  0  0  0  0
   -2.5709    0.4342   -1.7522 C   0  0  0  0  0  0  0  0  0  0  0  0
    2.7878    0.5271    0.5303 C   0  0  0  0  0  0  0  0  0  0  0  0
    1.9980   -1.5740   -0.3663 C   0  0  0  0  0  0  0  0  0  0  0  0
    4.0087    0.3458   -0.1261 C   0  0  0  0  0  0  0  0  0  0  0  0
    3.2217   -1.7551   -1.0190 C   0  0  0  0  0  0  0  0  0  0  0  0
    4.2242   -0.7945   -0.8982 C   0  0  0  0  0  0  0  0  0  0  0  0
   -0.0576    1.2663    0.6149 H   0  0  0  0  0  0  0  0  0  0  0  0
   -3.3011    0.7145    1.4980 H   0  0  0  0  0  0  0  0  0  0  0  0
    0.2286    1.2900   -1.7825 H   0  0  0  0  0  0  0  0  0  0  0  0
   -0.3229   -0.3894   -1.8346 H   0  0  0  0  0  0  0  0  0  0  0  0
   -4.4923    1.3052   -0.5866 H   0  0  0  0  0  0  0  0  0  0  0  0
   -4.3453   -0.3790    0.0304 H   0  0  0  0  0  0  0  0  0  0  0  0
   -4.4864   -0.0808   -1.6944 H   0  0  0  0  0  0  0  0  0  0  0  0
   -0.6427    0.8544    2.7091 H   0  0  0  0  0  0  0  0  0  0  0  0
   -2.2051    0.5339    3.4609 H   0  0  0  0  0  0  0  0  0  0  0  0
   -1.4498   -0.7328    2.4832 H   0  0  0  0  0  0  0  0  0  0  0  0
    2.6070    1.6175   -1.6276 H   0  0  0  0  0  0  0  0  0  0  0  0
    0.8810   -2.0392   -0.1203 H   0  0  0  0  0  0  0  0  0  0  0  0
    4.8625    0.7574   -1.1059 H   0  0  0  0  0  0  0  0  0  0  0  0
    3.1445   -2.8826    0.4140 H   0  0  0  0  0  0  0  0  0  0  0  0
    5.1428   -1.4836   -0.0742 H   0  0  0  0  0  0  0  0  0  0  0  0
   -1.5298   -0.8224   -0.9007 H   0  0  0  0  0  0  0  0  0  0  0  0
    1.9219   -0.1565    0.0254 H   0  0  0  0  0  0  0  0  0  0  0  0
   -0.1941    0.8461   -0.4915 H   0  0  0  0  0  0  0  0  0  0  0  0
   -3.5201    1.1795   -0.1226 H   0  0  0  0  0  0  0  0  0  0  0  0
    0.1633   -1.1844    1.6163 H   0  0  0  0  0  0  0  0  0  0  0  0
    0.5676    0.5061    1.9277 H   0  0  0  0  0  0  0  0  0  0  0  0
   -3.7257    1.6866    2.0576 H   0  0  0  0  0  0  0  0  0  0  0  0
   -3.6465    0.4289    3.2805 H   0  0  0  0  0  0  0  0  0  0  0  0
   -4.3079    0.0321    1.6912 H   0  0  0  0  0  0  0  0  0  0  0  0
   -1.5983    0.5250   -2.2410 H   0  0  0  0  0  0  0  0  0  0  0  0
   -3.3049    0.9462   -2.3761 H   0  0  0  0  0  0  0  0  0  0  0  0
   -2.8594   -0.6194   -1.6913 H   0  0  0  0  0  0  0  0  0  0  0  0
    2.6382    1.4299    1.1184 H   0  0  0  0  0  0  0  0  0  0  0  0
    1.2139   -2.3220   -0.4741 H   0  0  0  0  0  0  0  0  0  0  0  0
    4.7912    1.0945   -0.0352 H   0  0  0  0  0  0  0  0  0  0  0  0
    3.3942   -2.6450   -1.6208 H   0  0  0  0  0  0  0  0  0  0  0  0
    5.1751   -0.9341   -1.4077 H   0  0  0  0  0  0  0  0  0  0  0  0
  2  1  2  0
  3  1  1  0
  4  1  1  0
  5  3  1  0
  6  5  1  0
  7  2  1  0
  8  4  1  0
  9  6  2  0
 10  6  1  0
 11  9  1  0
 12 10  2  0
 13 12  1  0
 11 13  2  0
 15 14  2  0
 16 14  2  0
 17 14  1  0
 18 14  1  0
 20 19  2  0
 21 19  1  0
 22 19  1  0
 23 21  1  0
 24 23  1  0
 25 20  1  0
 26 22  1  0
 27 24  2  0
 28 24  1  0
 29 27  1  0
 30 28  2  0
 31 30  1  0
 29 31  2  0
  3 32  1  0
  4 33  1  0
  5 34  1  0
  5 35  1  0
  7 36  1  0
  7 37  1  0
  7 38  1  0
  8 39  1  0
  8 40  1  0
  8 41  1  0
  9 42  1  0
 10 43  1  0
 11 44  1  0
 12 45  1  0
 13 46  1  0
 17 47  1  0
 18 48  1  0
 21 49  1  0
 22 50  1  0
 23 51  1  0
 23 52  1  0
 25 53  1  0
 25 54  1  0
 25 55  1  0
 26 56  1  0
 26 57  1  0
 26 58  1  0
 27 59  1  0
 28 60  1  0
 29 61  1  0
 30 62  1  0
 31 63  1  0
M  END
$$$$
