
     RDKit          3D

 63 62  0  0  0  0  0  0  0  0999 V2000
    1.7094    0.0068    0.0557 C   0  0  0  0  0  0  0  0  0  0  0  0
    2.2275   -1.1624    0.0756 N   0  0  0  0  0  0  0  0  0  0  0  0
    0.3623    0.1671   -0.1344 N   0  0  0  0  0  0  0  0  0  0  0  0
    2.2296    1.2602    0.2157 N   0  0  0  0  0  0  0  0  0  0  0  0
   -0.5116   -0.9945   -0.1897 C   0  0  0  0  0  0  0  0  0  0  0  0
   -1.9386   -0.5299   -0.3610 C   0  0  0  0  0  0  0  0  0  0  0  0
    3.6269   -1.3853    0.3543 C   0  0  0  0  0  0  0  0  0  0  0  0
    3.6200    1.6139    0.0610 C   0  0  0  0  0  0  0  0  0  0  0  0
   -2.4323   -0.2112   -1.6357 C   0  0  0  0  0  0  0  0  0  0  0  0
   -2.7762   -0.3651    0.7542 C   0  0  0  0  0  0  0  0  0  0  0  0
   -3.7432    0.2398   -1.7941 C   0  0  0  0  0  0  0  0  0  0  0  0
   -4.0856    0.0917    0.5934 C   0  0  0  0  0  0  0  0  0  0  0  0
   -4.5693    0.3915   -0.6793 C   0  0  0  0  0  0  0  0  0  0  0  0
    0.0438    0.2831    0.3423 S   0  0  0  0  0  0  0  0  0  0  0  0
    0.5598    1.5978    0.0548 O   0  0  0  0  0  0  0  0  0  0  0  0
   -0.1681   -0.2193    1.6763 O   0  0  0  0  0  0  0  0  0  0  0  0
   -1.3368    0.0836   -0.4532 O   0  0  0  0  0  0  0  0  0  0  0  0
    1.0009   -0.7466   -0.4309 O   0  0  0  0  0  0  0  0  0  0  0  0
   -1.5677    0.2685   -0.2725 C   0  0  0  0  0  0  0  0  0  0  0  0
   -1.8997   -0.8002    0.3439 N   0  0  0  0  0  0  0  0  0  0  0  0
   -0.5346    0.2687   -1.1723 N   0  0  0  0  0  0  0  0  0  0  0  0
   -2.0517    1.5479   -0.2410 N   0  0  0  0  0  0  0  0  0  0  0  0
    0.3088   -0.8988   -1.3814 C   0  0  0  0  0  0  0  0  0  0  0  0
    1.6479   -0.7086   -0.7060 C   0  0  0  0  0  0  0  0  0  0  0  0
   -2.9542   -0.8453    1.3296 C   0  0  0  0  0  0  0  0  0  0  0  0
   -3.2794    1.9896    0.3716 C   0  0  0  0  0  0  0  0  0  0  0  0
    1.7485   -0.7609    0.6921 C   0  0  0  0  0  0  0  0  0  0  0  0
    2.8061   -0.4654   -1.4598 C   0  0  0  0  0  0  0  0  0  0  0  0
    2.9811   -0.5888    1.3227 C   0  0  0  0  0  0  0  0  0  0  0  0
    4.0396   -0.3002   -0.8273 C   0  0  0  0  0  0  0  0  0  0  0  0
    4.1267   -0.3645    0.5625 C   0  0  0  0  0  0  0  0  0  0  0  0
   -0.0167    0.8715    0.4848 H   0  0  0  0  0  0  0  0  0  0  0  0
    1.6332    1.9412   -0.2433 H   0  0  0  0  0  0  0  0  0  0  0  0
   -0.4256   -1.5849    0.7317 H   0  0  0  0  0  0  0  0  0  0  0  0
   -0.2382   -1.6513   -1.0261 H   0  0  0  0  0  0  0  0  0  0  0  0
    3.9294   -0.9427    1.3085 H   0  0  0  0  0  0  0  0  0  0  0  0
    3.8024   -2.4646    0.4409 H   0  0  0  0  0  0  0  0  0  0  0  0
    4.2662   -1.0231   -0.4571 H   0  0  0  0  0  0  0  0  0  0  0  0
    4.2254    1.2341    0.8879 H   0  0  0  0  0  0  0  0  0  0  0  0
    3.7211    2.7056    0.0662 H   0  0  0  0  0  0  0  0  0  0  0  0
    4.0191    1.2515   -0.8914 H   0  0  0  0  0  0  0  0  0  0  0  0
   -1.7891   -0.3028   -2.5087 H   0  0  0  0  0  0  0  0  0  0  0  0
   -2.4107   -0.5929    1.7549 H   0  0  0  0  0  0  0  0  0  0  0  0
   -4.1162    0.4795   -2.7864 H   0  0  0  0  0  0  0  0  0  0  0  0
   -4.7292    0.2128    1.4617 H   0  0  0  0  0  0  0  0  0  0  0  0
   -5.5897    0.7436   -0.8033 H   0  0  0  0  0  0  0  0  0  0  0  0
   -1.7000   -0.7900   -0.1975 H   0  0  0  0  0  0  0  0  0  0  0  0
    1.6004   -0.2085   -0.9919 H   0  0  0  0  0  0  0  0  0  0  0  0
    0.0220    1.1120   -1.1053 H   0  0  0  0  0  0  0  0  0  0  0  0
   -1.8732    2.0230   -1.1171 H   0  0  0  0  0  0  0  0  0  0  0  0
   -0.1489   -1.8348   -1.0405 H   0  0  0  0  0  0  0  0  0  0  0  0
    0.4548   -1.0161   -2.4610 H   0  0  0  0  0  0  0  0  0  0  0  0
   -2.9972   -1.8549    1.7538 H   0  0  0  0  0  0  0  0  0  0  0  0
   -3.9344   -0.6473    0.8884 H   0  0  0  0  0  0  0  0  0  0  0  0
   -2.7599   -0.1662    2.1646 H   0  0  0  0  0  0  0  0  0  0  0  0
   -4.1411    1.4473   -0.0283 H   0  0  0  0  0  0  0  0  0  0  0  0
   -3.4304    3.0519    0.1554 H   0  0  0  0  0  0  0  0  0  0  0  0
   -3.2413    1.8890    1.4592 H   0  0  0  0  0  0  0  0  0  0  0  0
    0.8573   -0.9320    1.2930 H   0  0  0  0  0  0  0  0  0  0  0  0
    2.7538   -0.4137   -2.5452 H   0  0  0  0  0  0  0  0  0  0  0  0
    3.0457   -0.6337    2.4066 H   0  0  0  0  0  0  0  0  0  0  0  0
    4.9337   -0.1260   -1.4192 H   0  0  0  0  0  0  0  0  0  0  0  0
    5.0876   -0.2405    1.0537 H   0  0  0  0  0  0  0  0  0  0  0  0
  2  1  2  0
  3  1  1  0
  4  1  1  0
  5  3  1  0
  6  5  1  0
  7  2  1  0
  8  4  1  0
  9  6  2  0
 10  6  1  0
 11  9  1  0
 12 10  2  0
 13 12  1  0
 11 13  2  0
 15 14  2  0
 16 14  2  0
 17 14  1  0
 18 14  1  0
 20 19  2  0
 21 19  1  0
 22 19  1  0
 23 21  1  0
 24 23  1  0
 25 20  1  0
 26 22  1  0
 27 24  2  0
 28 24  1  0
 29 27  1  0
 30 28  2  0
 31 30  1  0
 29 31  2  0
  3 32  1  0
  4 33  1  0
  5 34  1  0
  5 35  1  0
  7 36  1  0
  7 37  1  0
  7 38  1  0
  8 39  1  0
  8 40  1  0
  8 41  1  0
  9 42  1  0
 10 43  1  0
 11 44  1  0
 12 45  1  0
 13 46  1  0
 17 47  1  0
 18 48  1  0
 21 49  1  0
 22 50  1  0
 23 51  1  0
 23 52  1  0
 25 53  1  0
 25 54  1  0
 25 55  1  0
 26 56  1  0
 26 57  1  0
 26 58  1  0
 27 59  1  0
 28 60  1  0
 29 61  1  0
 30 62  1  0
 31 63  1  0
M  END
$$$$
