
     RDKit          3D

 63 62  0  0  0  0  0  0  0  0999 V2000
   -1.7747    0.3936    0.7500 C   0  0  0  0  0  0  0  0  0  0  0  0
   -2.3029    1.5261    0.4393 N   0  0  0  0  0  0  0  0  0  0  0  0
   -0.5915   -0.0020    0.2034 N   0  0  0  0  0  0  0  0  0  0  0  0
   -2.2787   -0.5396    1.6130 N   0  0  0  0  0  0  0  0  0  0  0  0
    0.2126    0.9092   -0.5899 C   0  0  0  0  0  0  0  0  0  0  0  0
    1.5977    0.3259   -0.7672 C   0  0  0  0  0  0  0  0  0  0  0  0
   -3.5533    1.9422    1.0527 C   0  0  0  0  0  0  0  0  0  0  0  0
   -2.2233   -1.9687    1.3566 C   0  0  0  0  0  0  0  0  0  0  0  0
    1.8500   -0.6386   -1.7537 C   0  0  0  0  0  0  0  0  0  0  0  0
    2.6453    0.7246    0.0817 C   0  0  0  0  0  0  0  0  0  0  0  0
    3.1277   -1.1898   -1.8952 C   0  0  0  0  0  0  0  0  0  0  0  0
    3.9220    0.1728   -0.0620 C   0  0  0  0  0  0  0  0  0  0  0  0
    4.1617   -0.7842   -1.0476 C   0  0  0  0  0  0  0  0  0  0  0  0
    0.0099   -0.3579    0.0783 S   0  0  0  0  0  0  0  0  0  0  0  0
   -0.0333   -0.1051    1.4992 O   0  0  0  0  0  0  0  0  0  0  0  0
    0.3698   -1.6408   -0.4776 O   0  0  0  0  0  0  0  0  0  0  0  0
    1.0053    0.7367   -0.5479 O   0  0  0  0  0  0  0  0  0  0  0  0
   -1.4173    0.0853   -0.5102 O   0  0  0  0  0  0  0  0  0  0  0  0
   -1.7414   -0.2084    0.8051 C   0  0  0  0  0  0  0  0  0  0  0  0
   -2.1048    0.6335    1.7067 N   0  0  0  0  0  0  0  0  0  0  0  0
   -0.5475   -0.0808    0.1606 N   0  0  0  0  0  0  0  0  0  0  0  0
   -2.4456   -1.2967    0.3660 N   0  0  0  0  0  0  0  0  0  0  0  0
    0.4097    0.9465    0.5391 C   0  0  0  0  0  0  0  0  0  0  0  0
    1.7081    0.7116   -0.1994 C   0  0  0  0  0  0  0  0  0  0  0  0
   -3.3778    0.4624    2.3781 C   0  0  0  0  0  0  0  0  0  0  0  0
   -2.5517   -1.6310   -1.0420 C   0  0  0  0  0  0  0  0  0  0  0  0
    1.8048    0.9600   -1.5799 C   0  0  0  0  0  0  0  0  0  0  0  0
    2.8282    0.2079    0.4795 C   0  0  0  0  0  0  0  0  0  0  0  0
    2.9968    0.7103   -2.2598 C   0  0  0  0  0  0  0  0  0  0  0  0
    4.0165   -0.0481   -0.2045 C   0  0  0  0  0  0  0  0  0  0  0  0
    4.0995    0.1959   -1.5756 C   0  0  0  0  0  0  0  0  0  0  0  0
   -0.0389   -0.5591    0.8464 H   0  0  0  0  0  0  0  0  0  0  0  0
   -3.1879   -0.2768    1.9725 H   0  0  0  0  0  0  0  0  0  0  0  0
   -0.2498    1.0666   -1.5728 H   0  0  0  0  0  0  0  0  0  0  0  0
    0.2885    1.8889   -0.1044 H   0  0  0  0  0  0  0  0  0  0  0  0
   -3.7139    3.0056    0.8563 H   0  0  0  0  0  0  0  0  0  0  0  0
   -3.5331    1.8335    2.1444 H   0  0  0  0  0  0  0  0  0  0  0  0
   -4.4032    1.3879    0.6392 H   0  0  0  0  0  0  0  0  0  0  0  0
   -2.7638   -2.4962    2.1493 H   0  0  0  0  0  0  0  0  0  0  0  0
   -2.7060   -2.2144    0.4062 H   0  0  0  0  0  0  0  0  0  0  0  0
   -1.1948   -2.3393    1.3538 H   0  0  0  0  0  0  0  0  0  0  0  0
    1.0510   -0.9574   -2.4174 H   0  0  0  0  0  0  0  0  0  0  0  0
    2.4704    1.4641    0.8647 H   0  0  0  0  0  0  0  0  0  0  0  0
    3.3113   -1.9416   -2.6617 H   0  0  0  0  0  0  0  0  0  0  0  0
    4.7244    0.4811    0.6042 H   0  0  0  0  0  0  0  0  0  0  0  0
    5.1530   -1.2147   -1.1512 H   0  0  0  0  0  0  0  0  0  0  0  0
    1.8956    0.5830   -0.1736 H   0  0  0  0  0  0  0  0  0  0  0  0
   -1.8301    0.6988    0.1318 H   0  0  0  0  0  0  0  0  0  0  0  0
   -0.1238   -0.9663   -0.0732 H   0  0  0  0  0  0  0  0  0  0  0  0
   -3.3475   -1.3814    0.8198 H   0  0  0  0  0  0  0  0  0  0  0  0
    0.5954    0.9169    1.6221 H   0  0  0  0  0  0  0  0  0  0  0  0
    0.0239    1.9440    0.2924 H   0  0  0  0  0  0  0  0  0  0  0  0
   -3.4441    1.1766    3.2085 H   0  0  0  0  0  0  0  0  0  0  0  0
   -3.4905   -0.5424    2.8097 H   0  0  0  0  0  0  0  0  0  0  0  0
   -4.2146    0.6577    1.6923 H   0  0  0  0  0  0  0  0  0  0  0  0
   -1.5886   -1.9391   -1.4691 H   0  0  0  0  0  0  0  0  0  0  0  0
   -2.9269   -0.7743   -1.6141 H   0  0  0  0  0  0  0  0  0  0  0  0
   -3.2596   -2.4546   -1.1701 H   0  0  0  0  0  0  0  0  0  0  0  0
    0.9498    1.3478   -2.1263 H   0  0  0  0  0  0  0  0  0  0  0  0
    2.7792    0.0150    1.5516 H   0  0  0  0  0  0  0  0  0  0  0  0
    3.0606    0.8990   -3.3298 H   0  0  0  0  0  0  0  0  0  0  0  0
    4.8710   -0.4506    0.3291 H   0  0  0  0  0  0  0  0  0  0  0  0
    5.0208   -0.0115   -2.1169 H   0  0  0  0  0  0  0  0  0  0  0  0
  2  1  2  0
  3  1  1  0
  4  1  1  0
  5  3  1  0
  6  5  1  0
  7  2  1  0
  8  4  1  0
  9  6  2  0
 10  6  1  0
 11  9  1  0
 12 10  2  0
 13 12  1  0
 11 13  2  0
 15 14  2  0
 16 14  2  0
 17 14  1  0
 18 14  1  0
 20 19  2  0
 21 19  1  0
 22 19  1  0
 23 21  1  0
 24 23  1  0
 25 20  1  0
 26 22  1  0
 27 24  2  0
 28 24  1  0
 29 27  1  0
 30 28  2  0
 31 30  1  0
 29 31  2  0
  3 32  1  0
  4 33  1  0
  5 34  1  0
  5 35  1  0
  7 36  1  0
  7 37  1  0
  7 38  1  0
  8 39  1  0
  8 40  1  0
  8 41  1  0
  9 42  1  0
 10 43  1  0
 11 44  1  0
 12 45  1  0
 13 46  1  0
 17 47  1  0
 18 48  1  0
 21 49  1  0
 22 50  1  0
 23 51  1  0
 23 52  1  0
 25 53  1  0
 25 54  1  0
 25 55  1  0
 26 56  1  0
 26 57  1  0
 26 58  1  0
 27 59  1  0
 28 60  1  0
 29 61  1  0
 30 62  1  0
 31 63  1  0
M  END
$$$$
