
     RDKit          3D

 68 78  0  0  0  0  0  0  0  0999 V2000
    1.4170   -0.0073   -1.1097 C   0  0  0  0  0  0  0  0  0  0  0  0
    0.3271   -0.1326   -1.9733 C   0  0  0  0  0  0  0  0  0  0  0  0
    1.5171    1.0411   -0.2181 C   0  0  0  0  0  0  0  0  0  0  0  0
    2.4481   -0.9471   -1.1212 C   0  0  0  0  0  0  0  0  0  0  0  0
    2.5951    1.1825    0.6500 C   0  0  0  0  0  0  0  0  0  0  0  0
    3.5993    0.2376    0.6154 C   0  0  0  0  0  0  0  0  0  0  0  0
    3.5178   -0.8194   -0.2697 C   0  0  0  0  0  0  0  0  0  0  0  0
    0.2485   -1.1625   -2.8350 N   0  0  0  0  0  0  0  0  0  0  0  0
   -3.6346   -0.1258    0.2032 C   0  0  0  0  0  0  0  0  0  0  0  0
   -0.7104    0.9034   -1.8896 C   0  0  0  0  0  0  0  0  0  0  0  0
   -3.3606    0.4815    1.4219 C   0  0  0  0  0  0  0  0  0  0  0  0
   -2.7678    0.0189   -0.8601 C   0  0  0  0  0  0  0  0  0  0  0  0
   -1.6053    0.7782   -0.7220 C   0  0  0  0  0  0  0  0  0  0  0  0
   -2.2152    1.2347    1.5718 C   0  0  0  0  0  0  0  0  0  0  0  0
   -1.3510    1.3734    0.4974 C   0  0  0  0  0  0  0  0  0  0  0  0
    1.2276   -2.0915   -2.8746 C   0  0  0  0  0  0  0  0  0  0  0  0
    2.6607    2.2656    1.5446 O   0  0  0  0  0  0  0  0  0  0  0  0
    4.6841    0.3869    1.4946 O   0  0  0  0  0  0  0  0  0  0  0  0
   -4.7874   -0.8926    0.0289 O   0  0  0  0  0  0  0  0  0  0  0  0
   -4.2713    0.2913    2.4336 O   0  0  0  0  0  0  0  0  0  0  0  0
    2.3059   -1.9779   -2.0282 C   0  0  0  0  0  0  0  0  0  0  0  0
    1.6169    3.2208    1.5583 C   0  0  0  0  0  0  0  0  0  0  0  0
   -4.9754   -1.4726   -1.2596 C   0  0  0  0  0  0  0  0  0  0  0  0
    5.6755   -0.6088    1.4111 C   0  0  0  0  0  0  0  0  0  0  0  0
   -4.1617    0.8264    3.7303 C   0  0  0  0  0  0  0  0  0  0  0  0
    0.2411    0.7481   -0.7191 C   0  0  2  0  0  0  0  0  0  0  0  0
   -0.2845   -0.5171   -0.1332 C   0  0  0  0  0  0  0  0  0  0  0  0
    1.2694    1.2707    0.2204 C   0  0  2  0  0  0  0  0  0  0  0  0
   -1.6346   -0.6221   -0.3608 C   0  0  0  0  0  0  0  0  0  0  0  0
   -1.0423    1.5512   -0.8040 C   0  0  1  0  0  0  0  0  0  0  0  0
   -2.0456    0.5259   -1.0586 O   0  0  0  0  0  0  0  0  0  0  0  0
    2.3579    0.2258    0.3491 C   0  0  1  0  0  0  0  0  0  0  0  0
    0.4861   -1.4291    0.5216 C   0  0  0  0  0  0  0  0  0  0  0  0
    0.6987    1.6284    1.5456 C   0  0  0  0  0  0  0  0  0  0  0  0
    1.9186   -1.1408    0.7071 C   0  0  0  0  0  0  0  0  0  0  0  0
    3.0204    0.2475   -0.9728 N   0  0  0  0  0  0  0  0  0  0  0  0
    0.8248    0.5017   -2.0763 C   0  0  0  0  0  0  0  0  0  0  0  0
   -0.5190    2.1277    1.5875 C   0  0  0  0  0  0  0  0  0  0  0  0
   -1.3462    2.3531    0.4084 C   0  0  2  0  0  0  0  0  0  0  0  0
   -2.2477   -1.7596    0.1204 C   0  0  0  0  0  0  0  0  0  0  0  0
    2.0976   -0.2805   -1.9723 C   0  0  0  0  0  0  0  0  0  0  0  0
   -0.1527   -2.5588    0.9934 C   0  0  0  0  0  0  0  0  0  0  0  0
   -1.5097   -2.7149    0.7896 C   0  0  0  0  0  0  0  0  0  0  0  0
   -3.6108   -1.8887   -0.0987 O   0  0  0  0  0  0  0  0  0  0  0  0
   -2.7132    2.3321    0.6809 O   0  0  0  0  0  0  0  0  0  0  0  0
    4.1919   -0.6008   -0.9859 C   0  0  0  0  0  0  0  0  0  0  0  0
   -0.7882    0.1744    0.9141 C   0  0  2  0  0  0  0  0  0  0  0  0
    0.3703   -0.3342    0.1280 C   0  0  0  0  0  0  0  0  0  0  0  0
   -1.8640    0.4426   -0.1112 C   0  0  2  0  0  0  0  0  0  0  0  0
    1.5356    0.2724    0.5029 C   0  0  0  0  0  0  0  0  0  0  0  0
   -0.2111    1.4096    1.5095 C   0  0  0  0  0  0  0  0  0  0  0  0
    1.2243    1.1850    1.4963 O   0  0  0  0  0  0  0  0  0  0  0  0
   -2.2586   -0.8736   -0.7498 C   0  0  2  0  0  0  0  0  0  0  0  0
   -3.0278   -1.5459    0.3222 N   0  0  0  0  0  0  0  0  0  0  0  0
    0.2136   -1.2915   -0.8226 C   0  0  0  0  0  0  0  0  0  0  0  0
   -1.3940    1.4238   -1.1317 C   0  0  0  0  0  0  0  0  0  0  0  0
   -1.1348   -1.7900   -1.0985 C   0  0  0  0  0  0  0  0  0  0  0  0
   -1.3209   -0.7939    1.9139 C   0  0  0  0  0  0  0  0  0  0  0  0
   -0.7811    2.4908   -0.6644 C   0  0  0  0  0  0  0  0  0  0  0  0
   -0.6037    2.6468    0.7855 C   0  0  2  0  0  0  0  0  0  0  0  0
    2.6744   -0.1540   -0.1729 C   0  0  0  0  0  0  0  0  0  0  0  0
   -1.9884   -1.9558    1.2734 C   0  0  0  0  0  0  0  0  0  0  0  0
    1.3687   -1.6963   -1.4800 C   0  0  0  0  0  0  0  0  0  0  0  0
    2.5902   -1.1326   -1.1580 C   0  0  0  0  0  0  0  0  0  0  0  0
   -3.6991   -2.7081   -0.1705 C   0  0  0  0  0  0  0  0  0  0  0  0
    0.1380    3.7534    1.1347 O   0  0  0  0  0  0  0  0  0  0  0  0
    3.8854    0.4367    0.1782 O   0  0  0  0  0  0  0  0  0  0  0  0
    5.0713    0.0404   -0.4767 C   0  0  0  0  0  0  0  0  0  0  0  0
  2  1  1  0
  3  1  2  0
  4  1  1  0
  5  3  1  0
  6  7  1  0
  7  4  2  0
  8  2  2  0
  9 12  2  0
 10  2  1  0
 11 14  2  0
 12 13  1  0
 13 10  1  0
 14 15  1  0
 15 13  2  0
 16 21  2  0
 17  5  1  0
 18  6  1  0
 19  9  1  0
 20 11  1  0
 21  4  1  0
 22 17  1  0
 23 19  1  0
 24 18  1  0
 25 20  1  0
 16  8  1  0
  6  5  2  0
 11  9  1  0
 27 26  1  0
 28 26  1  0
 29 27  2  0
 30 26  1  0
 30 31  1  1
 32 28  1  0
 33 27  1  0
 28 34  1  1
 32 35  1  6
 36 41  1  0
 26 37  1  6
 38 39  1  0
 39 30  1  0
 40 29  1  0
 41 37  1  0
 42 33  2  0
 43 42  1  0
 44 40  1  0
 39 45  1  1
 46 36  1  0
 29 31  1  0
 32 36  1  0
 38 34  2  0
 35 33  1  0
 43 40  2  0
 48 47  1  0
 49 47  1  0
 50 48  2  0
 51 47  1  0
 52 51  1  0
 53 49  1  0
 54 62  1  0
 55 48  1  0
 49 56  1  6
 53 57  1  1
 47 58  1  1
 59 60  1  0
 60 51  1  0
 61 50  1  0
 62 58  1  0
 63 55  2  0
 64 63  1  0
 65 54  1  0
 60 66  1  6
 67 61  1  0
 68 67  1  0
 52 50  1  0
 53 54  1  0
 59 56  2  0
 57 55  1  0
 64 61  2  0
M  END
