
     RDKit          3D

129139  0  0  0  0  0  0  0  0999 V2000
   -1.5730    0.6516    0.6890 C   0  0  0  0  0  0  0  0  0  0  0  0
   -0.2376    0.2109    0.4918 C   0  0  0  0  0  0  0  0  0  0  0  0
   -2.6923    0.2075   -0.0589 C   0  0  0  0  0  0  0  0  0  0  0  0
   -1.7948    1.6034    1.7072 C   0  0  0  0  0  0  0  0  0  0  0  0
   -3.9840    0.6886    0.1897 C   0  0  0  0  0  0  0  0  0  0  0  0
   -4.1867    1.6326    1.2098 C   0  0  0  0  0  0  0  0  0  0  0  0
   -3.0933    2.0816    1.9566 C   0  0  0  0  0  0  0  0  0  0  0  0
    0.8027    0.6707    1.2366 N   0  0  0  0  0  0  0  0  0  0  0  0
    3.7467   -0.8618   -1.6970 C   0  0  0  0  0  0  0  0  0  0  0  0
    0.0843   -0.8154   -0.5850 C   0  0  0  0  0  0  0  0  0  0  0  0
    4.2403   -1.9736   -0.9856 C   0  0  0  0  0  0  0  0  0  0  0  0
    2.4014   -0.4949   -1.5616 C   0  0  0  0  0  0  0  0  0  0  0  0
    1.5374   -1.2211   -0.7262 C   0  0  0  0  0  0  0  0  0  0  0  0
    3.3821   -2.6890   -0.1444 C   0  0  0  0  0  0  0  0  0  0  0  0
    2.0429   -2.3129   -0.0126 C   0  0  0  0  0  0  0  0  0  0  0  0
    0.5457    1.5768    2.1957 C   0  0  0  0  0  0  0  0  0  0  0  0
   -5.1048    0.2994   -0.5012 O   0  0  0  0  0  0  0  0  0  0  0  0
   -5.4804    2.0519    1.3955 O   0  0  0  0  0  0  0  0  0  0  0  0
    4.6509   -0.2088   -2.4995 O   0  0  0  0  0  0  0  0  0  0  0  0
    5.5663   -2.2749   -1.1792 O   0  0  0  0  0  0  0  0  0  0  0  0
   -0.7160    2.0661    2.4650 C   0  0  0  0  0  0  0  0  0  0  0  0
   -4.9428   -0.6177   -1.5734 C   0  0  0  0  0  0  0  0  0  0  0  0
    4.2307    1.0040   -3.1067 C   0  0  0  0  0  0  0  0  0  0  0  0
   -5.7308    2.9973    2.4252 C   0  0  0  0  0  0  0  0  0  0  0  0
    6.1139   -3.3441   -0.4223 C   0  0  0  0  0  0  0  0  0  0  0  0
    0.1553    0.5540    0.7473 C   0  0  2  0  0  0  0  0  0  0  0  0
    0.8095   -0.5418   -0.0416 C   0  0  0  0  0  0  0  0  0  0  0  0
   -0.9507    1.1790   -0.1119 C   0  0  2  0  0  0  0  0  0  0  0  0
    2.1626   -0.5852    0.2179 C   0  0  0  0  0  0  0  0  0  0  0  0
    1.4337    1.3806    1.0064 C   0  0  1  0  0  0  0  0  0  0  0  0
    2.5728    0.4485    1.0220 O   0  0  0  0  0  0  0  0  0  0  0  0
   -1.9129    0.0002   -0.4982 C   0  0  1  0  0  0  0  0  0  0  0  0
    0.2084   -1.3561   -0.9872 C   0  0  0  0  0  0  0  0  0  0  0  0
   -0.4053    1.9700   -1.2755 C   0  0  0  0  0  0  0  0  0  0  0  0
   -1.2081   -1.0590   -1.4061 C   0  0  0  0  0  0  0  0  0  0  0  0
   -2.4292   -0.7311    0.6914 N   0  0  0  0  0  0  0  0  0  0  0  0
   -0.4472   -0.0417    2.0442 C   0  0  0  0  0  0  0  0  0  0  0  0
    0.7956    2.5668   -1.2211 C   0  0  0  0  0  0  0  0  0  0  0  0
    1.6924    2.5280   -0.0171 C   0  0  2  0  0  0  0  0  0  0  0  0
    2.9605   -1.5417   -0.3702 C   0  0  0  0  0  0  0  0  0  0  0  0
   -1.9751   -0.2003    1.9752 C   0  0  0  0  0  0  0  0  0  0  0  0
    1.0060   -2.3298   -1.5945 C   0  0  0  0  0  0  0  0  0  0  0  0
    2.3742   -2.4375   -1.2695 C   0  0  0  0  0  0  0  0  0  0  0  0
    4.2942   -1.5727   -0.0997 O   0  0  0  0  0  0  0  0  0  0  0  0
    3.0422    2.5465   -0.4807 O   0  0  0  0  0  0  0  0  0  0  0  0
   -3.8821   -0.8760    0.6564 C   0  0  0  0  0  0  0  0  0  0  0  0
   -0.4151    0.6970    0.7235 C   0  0  2  0  0  0  0  0  0  0  0  0
    0.5328   -0.2612    0.0627 C   0  0  0  0  0  0  0  0  0  0  0  0
   -1.6109    0.9046   -0.2163 C   0  0  2  0  0  0  0  0  0  0  0  0
    1.8425    0.0948    0.3147 C   0  0  0  0  0  0  0  0  0  0  0  0
    0.5857    1.8621    0.8981 C   0  0  1  0  0  0  0  0  0  0  0  0
    1.9300    1.2822    0.9971 O   0  0  0  0  0  0  0  0  0  0  0  0
   -2.2240   -0.5195   -0.4574 C   0  0  2  0  0  0  0  0  0  0  0  0
   -2.5993   -1.2047    0.8090 N   0  0  0  0  0  0  0  0  0  0  0  0
    0.1962   -1.3147   -0.7691 C   0  0  0  0  0  0  0  0  0  0  0  0
   -1.2308    1.6566   -1.4708 C   0  0  0  0  0  0  0  0  0  0  0  0
   -1.2354   -1.4672   -1.2103 C   0  0  0  0  0  0  0  0  0  0  0  0
   -0.8835    0.0995    2.0733 C   0  0  0  0  0  0  0  0  0  0  0  0
   -0.2536    2.5773   -1.4629 C   0  0  0  0  0  0  0  0  0  0  0  0
    0.4878    2.9603   -0.2073 C   0  0  2  0  0  0  0  0  0  0  0  0
    2.8991   -0.6744   -0.1422 C   0  0  0  0  0  0  0  0  0  0  0  0
   -2.3231   -0.4358    2.0213 C   0  0  0  0  0  0  0  0  0  0  0  0
    1.2417   -2.1011   -1.2532 C   0  0  0  0  0  0  0  0  0  0  0  0
    2.5807   -1.7964   -0.9222 C   0  0  0  0  0  0  0  0  0  0  0  0
   -3.9790   -1.6835    0.7849 C   0  0  0  0  0  0  0  0  0  0  0  0
    1.7649    3.4969   -0.5348 O   0  0  0  0  0  0  0  0  0  0  0  0
    4.1545   -0.2583    0.1930 O   0  0  0  0  0  0  0  0  0  0  0  0
    5.2409   -1.0453   -0.2707 C   0  0  0  0  0  0  0  0  0  0  0  0
   -2.5375   -0.5256   -0.8424 H   0  0  0  0  0  0  0  0  0  0  0  0
   -3.2296    2.8130    2.7473 H   0  0  0  0  0  0  0  0  0  0  0  0
   -0.2534   -0.4250   -1.5541 H   0  0  0  0  0  0  0  0  0  0  0  0
   -0.5046   -1.7218   -0.3910 H   0  0  0  0  0  0  0  0  0  0  0  0
    1.9984    0.3606   -2.0935 H   0  0  0  0  0  0  0  0  0  0  0  0
    3.7243   -3.5439    0.4280 H   0  0  0  0  0  0  0  0  0  0  0  0
    1.3977   -2.8749    0.6590 H   0  0  0  0  0  0  0  0  0  0  0  0
    1.4109    1.9102    2.7615 H   0  0  0  0  0  0  0  0  0  0  0  0
   -0.8465    2.7970    3.2563 H   0  0  0  0  0  0  0  0  0  0  0  0
   -5.9256   -0.7816   -2.0254 H   0  0  0  0  0  0  0  0  0  0  0  0
   -4.2859   -0.2098   -2.3486 H   0  0  0  0  0  0  0  0  0  0  0  0
   -4.5774   -1.5842   -1.2122 H   0  0  0  0  0  0  0  0  0  0  0  0
    3.4404    0.8222   -3.8422 H   0  0  0  0  0  0  0  0  0  0  0  0
    5.0882    1.4255   -3.6398 H   0  0  0  0  0  0  0  0  0  0  0  0
    3.9140    1.7370   -2.3571 H   0  0  0  0  0  0  0  0  0  0  0  0
   -6.8055    3.2026    2.4372 H   0  0  0  0  0  0  0  0  0  0  0  0
   -5.2143    3.9423    2.2277 H   0  0  0  0  0  0  0  0  0  0  0  0
   -5.4597    2.5948    3.4067 H   0  0  0  0  0  0  0  0  0  0  0  0
    6.0458   -3.1452    0.6521 H   0  0  0  0  0  0  0  0  0  0  0  0
    7.1745   -3.4261   -0.6778 H   0  0  0  0  0  0  0  0  0  0  0  0
    5.6370   -4.2954   -0.6804 H   0  0  0  0  0  0  0  0  0  0  0  0
   -1.5195    1.9087    0.4820 H   0  0  0  0  0  0  0  0  0  0  0  0
    1.4053    1.8376    2.0039 H   0  0  0  0  0  0  0  0  0  0  0  0
   -2.7516    0.4236   -1.0681 H   0  0  0  0  0  0  0  0  0  0  0  0
   -1.0237    2.0876   -2.1616 H   0  0  0  0  0  0  0  0  0  0  0  0
   -1.7900   -1.9886   -1.4406 H   0  0  0  0  0  0  0  0  0  0  0  0
   -1.1765   -0.6669   -2.4309 H   0  0  0  0  0  0  0  0  0  0  0  0
   -0.2345    0.6168    2.8958 H   0  0  0  0  0  0  0  0  0  0  0  0
    0.0049   -1.0128    2.2867 H   0  0  0  0  0  0  0  0  0  0  0  0
    1.1411    3.1567   -2.0669 H   0  0  0  0  0  0  0  0  0  0  0  0
    1.5397    3.4813    0.5047 H   0  0  0  0  0  0  0  0  0  0  0  0
   -2.2814   -0.8726    2.7866 H   0  0  0  0  0  0  0  0  0  0  0  0
   -2.4511    0.7676    2.1825 H   0  0  0  0  0  0  0  0  0  0  0  0
    0.5809   -2.9944   -2.3431 H   0  0  0  0  0  0  0  0  0  0  0  0
    2.9699   -3.1985   -1.7647 H   0  0  0  0  0  0  0  0  0  0  0  0
    4.6830   -2.3386   -0.5502 H   0  0  0  0  0  0  0  0  0  0  0  0
    3.4252    1.6780   -0.2429 H   0  0  0  0  0  0  0  0  0  0  0  0
   -4.3920    0.0917    0.7263 H   0  0  0  0  0  0  0  0  0  0  0  0
   -4.2277   -1.5083    1.4819 H   0  0  0  0  0  0  0  0  0  0  0  0
   -4.1991   -1.3695   -0.2691 H   0  0  0  0  0  0  0  0  0  0  0  0
   -2.3710    1.5306    0.2730 H   0  0  0  0  0  0  0  0  0  0  0  0
    0.4218    2.3710    1.8567 H   0  0  0  0  0  0  0  0  0  0  0  0
   -3.1140   -0.3985   -1.0910 H   0  0  0  0  0  0  0  0  0  0  0  0
   -1.7816    1.4582   -2.3865 H   0  0  0  0  0  0  0  0  0  0  0  0
   -1.2796   -1.2264   -2.2804 H   0  0  0  0  0  0  0  0  0  0  0  0
   -1.5483   -2.5140   -1.1090 H   0  0  0  0  0  0  0  0  0  0  0  0
   -0.8589    0.8675    2.8565 H   0  0  0  0  0  0  0  0  0  0  0  0
   -0.2134   -0.7026    2.4103 H   0  0  0  0  0  0  0  0  0  0  0  0
   -0.0309    3.1141   -2.3804 H   0  0  0  0  0  0  0  0  0  0  0  0
   -0.0831    3.7952    0.2209 H   0  0  0  0  0  0  0  0  0  0  0  0
   -3.0254    0.4035    2.1138 H   0  0  0  0  0  0  0  0  0  0  0  0
   -2.4810   -1.0664    2.9052 H   0  0  0  0  0  0  0  0  0  0  0  0
    1.0339   -2.9440   -1.9081 H   0  0  0  0  0  0  0  0  0  0  0  0
    3.3552   -2.4417   -1.3238 H   0  0  0  0  0  0  0  0  0  0  0  0
   -4.1430   -2.3459   -0.0722 H   0  0  0  0  0  0  0  0  0  0  0  0
   -4.2012   -2.2719    1.6821 H   0  0  0  0  0  0  0  0  0  0  0  0
   -4.6969   -0.8576    0.7269 H   0  0  0  0  0  0  0  0  0  0  0  0
    1.6723    4.0650   -1.3143 H   0  0  0  0  0  0  0  0  0  0  0  0
    5.2798   -1.0610   -1.3647 H   0  0  0  0  0  0  0  0  0  0  0  0
    6.1663   -0.5838    0.0871 H   0  0  0  0  0  0  0  0  0  0  0  0
    5.1968   -2.0603    0.1375 H   0  0  0  0  0  0  0  0  0  0  0  0
  2  1  1  0
  3  1  2  0
  4  1  1  0
  5  3  1  0
  6  7  1  0
  7  4  2  0
  8  2  2  0
  9 12  2  0
 10  2  1  0
 11 14  2  0
 12 13  1  0
 13 10  1  0
 14 15  1  0
 15 13  2  0
 16 21  2  0
 17  5  1  0
 18  6  1  0
 19  9  1  0
 20 11  1  0
 21  4  1  0
 22 17  1  0
 23 19  1  0
 24 18  1  0
 25 20  1  0
 16  8  1  0
  6  5  2  0
 11  9  1  0
 27 26  1  0
 28 26  1  0
 29 27  2  0
 30 26  1  0
 30 31  1  0
 32 28  1  0
 33 27  1  0
 28 34  1  0
 32 35  1  0
 36 41  1  0
 26 37  1  1
 38 39  1  0
 39 30  1  0
 40 29  1  0
 41 37  1  0
 42 33  2  0
 43 42  1  0
 44 40  1  0
 39 45  1  0
 46 36  1  0
 29 31  1  0
 32 36  1  0
 38 34  2  0
 35 33  1  0
 43 40  2  0
 48 47  1  0
 49 47  1  0
 50 48  2  0
 51 47  1  0
 52 51  1  0
 53 49  1  0
 54 62  1  0
 55 48  1  0
 49 56  1  0
 53 57  1  0
 47 58  1  1
 59 60  1  0
 60 51  1  0
 61 50  1  0
 62 58  1  0
 63 55  2  0
 64 63  1  0
 65 54  1  0
 60 66  1  0
 67 61  1  0
 68 67  1  0
 52 50  1  0
 53 54  1  0
 59 56  2  0
 57 55  1  0
 64 61  2  0
  3 69  1  0
  7 70  1  0
 10 71  1  0
 10 72  1  0
 12 73  1  0
 14 74  1  0
 15 75  1  0
 16 76  1  0
 21 77  1  0
 22 78  1  0
 22 79  1  0
 22 80  1  0
 23 81  1  0
 23 82  1  0
 23 83  1  0
 24 84  1  0
 24 85  1  0
 24 86  1  0
 25 87  1  0
 25 88  1  0
 25 89  1  0
 28 90  1  1
 30 91  1  1
 32 92  1  6
 34 93  1  0
 35 94  1  0
 35 95  1  0
 37 96  1  0
 37 97  1  0
 38 98  1  0
 39 99  1  1
 41100  1  0
 41101  1  0
 42102  1  0
 43103  1  0
 44104  1  0
 45105  1  0
 46106  1  0
 46107  1  0
 46108  1  0
 49109  1  1
 51110  1  1
 53111  1  6
 56112  1  0
 57113  1  0
 57114  1  0
 58115  1  0
 58116  1  0
 59117  1  0
 60118  1  1
 62119  1  0
 62120  1  0
 63121  1  0
 64122  1  0
 65123  1  0
 65124  1  0
 65125  1  0
 66126  1  0
 68127  1  0
 68128  1  0
 68129  1  0
M  END
$$$$
