
     RDKit          3D

113118  0  0  0  0  0  0  0  0999 V2000
   -1.5136    0.4373   -1.7344 C   0  0  2  0  0  0  0  0  0  0  0  0
    0.9001    0.7698   -1.0965 C   0  0  0  0  0  0  0  0  0  0  0  0
   -1.3995   -1.0185   -1.2530 C   0  0  2  0  0  0  0  0  0  0  0  0
   -2.5809    1.1683    0.4568 C   0  0  0  0  0  0  0  0  0  0  0  0
   -0.2802    1.2929   -1.4791 C   0  0  0  0  0  0  0  0  0  0  0  0
    1.2139   -0.6986   -1.0722 C   0  0  1  0  0  0  0  0  0  0  0  0
   -2.7196    1.0826   -1.0223 C   0  0  0  0  0  0  0  0  0  0  0  0
   -1.8776    0.1531    1.0200 C   0  0  0  0  0  0  0  0  0  0  0  0
    2.0308    1.6728   -0.7679 C   0  0  0  0  0  0  0  0  0  0  0  0
    1.9826   -1.1527    0.2117 C   0  0  1  0  0  0  0  0  0  0  0  0
   -1.8097   -1.1947    0.2358 C   0  0  1  0  0  0  0  0  0  0  0  0
    0.0159   -1.5794   -1.5257 C   0  0  2  0  0  0  0  0  0  0  0  0
    3.0553    1.1892    0.1837 C   0  0  0  0  0  0  0  0  0  0  0  0
    2.9935   -0.1165    0.7046 C   0  0  0  0  0  0  0  0  0  0  0  0
   -2.8868    2.4460    1.1439 C   0  0  0  0  0  0  0  0  0  0  0  0
   -1.1994    0.1160    2.0855 O   0  0  0  0  0  0  0  0  0  0  0  0
   -3.0019   -2.0931    0.3677 N   0  0  0  0  0  0  0  0  0  0  0  0
   -3.6786    1.5345   -1.6500 O   0  0  0  0  0  0  0  0  0  0  0  0
    2.1010    2.8092   -1.2447 O   0  0  0  0  0  0  0  0  0  0  0  0
    4.0626    2.0750    0.6174 C   0  0  0  0  0  0  0  0  0  0  0  0
   -1.6848    0.4234   -3.1634 O   0  0  0  0  0  0  0  0  0  0  0  0
   -3.8116    2.5908    1.9342 O   0  0  0  0  0  0  0  0  0  0  0  0
   -0.4658    2.6615   -1.6540 O   0  0  0  0  0  0  0  0  0  0  0  0
    1.1545   -1.4868    1.3120 O   0  0  0  0  0  0  0  0  0  0  0  0
    0.1543   -1.7809   -2.9544 O   0  0  0  0  0  0  0  0  0  0  0  0
   -2.1070    3.5008    0.7605 N   0  0  0  0  0  0  0  0  0  0  0  0
    2.7311   -2.4685   -0.1331 C   0  0  0  0  0  0  0  0  0  0  0  0
    3.9078   -0.4581    1.7253 C   0  0  0  0  0  0  0  0  0  0  0  0
    4.2091    3.3509    0.1310 O   0  0  0  0  0  0  0  0  0  0  0  0
    4.8970    0.4302    2.1535 C   0  0  0  0  0  0  0  0  0  0  0  0
    4.9839    1.6922    1.5866 C   0  0  0  0  0  0  0  0  0  0  0  0
   -3.0582   -2.6682    1.7196 C   0  0  0  0  0  0  0  0  0  0  0  0
   -4.2857   -1.4876    0.0389 C   0  0  0  0  0  0  0  0  0  0  0  0
   -1.0538   -0.8585    1.3423 C   0  0  2  0  0  0  0  0  0  0  0  0
    1.3768   -0.1726    1.4274 C   0  0  0  0  0  0  0  0  0  0  0  0
   -1.3048    0.1751    0.1946 C   0  0  2  0  0  0  0  0  0  0  0  0
   -3.1599   -2.1075    0.5701 C   0  0  0  0  0  0  0  0  0  0  0  0
    0.4260   -1.0847    1.7079 C   0  0  0  0  0  0  0  0  0  0  0  0
    1.0022    1.1275    0.7616 C   0  0  1  0  0  0  0  0  0  0  0  0
   -1.7685   -2.1887    1.0452 C   0  0  0  0  0  0  0  0  0  0  0  0
   -3.4225   -1.2472   -0.4472 C   0  0  0  0  0  0  0  0  0  0  0  0
    2.8198   -0.5387    1.5340 C   0  0  0  0  0  0  0  0  0  0  0  0
    2.2326    2.0130    0.3724 C   0  0  1  0  0  0  0  0  0  0  0  0
   -2.2180   -0.3829   -0.9741 C   0  0  1  0  0  0  0  0  0  0  0  0
    0.0345    0.7538   -0.3819 C   0  0  2  0  0  0  0  0  0  0  0  0
    3.6772   -0.0483    0.4340 C   0  0  0  0  0  0  0  0  0  0  0  0
    3.3447    1.1563   -0.2069 C   0  0  0  0  0  0  0  0  0  0  0  0
   -4.1762   -2.9815    1.2339 C   0  0  0  0  0  0  0  0  0  0  0  0
   -4.5151   -1.0977   -1.0659 O   0  0  0  0  0  0  0  0  0  0  0  0
   -2.4444    0.7262   -1.9708 N   0  0  0  0  0  0  0  0  0  0  0  0
   -1.2306   -3.2858    1.2352 O   0  0  0  0  0  0  0  0  0  0  0  0
    3.3074   -1.2746    2.3896 O   0  0  0  0  0  0  0  0  0  0  0  0
    4.7788   -0.8034    0.0167 C   0  0  0  0  0  0  0  0  0  0  0  0
   -1.6370   -0.3328    2.5505 O   0  0  0  0  0  0  0  0  0  0  0  0
   -4.0376   -3.4026    2.3796 O   0  0  0  0  0  0  0  0  0  0  0  0
    0.7774   -2.2858    2.3163 O   0  0  0  0  0  0  0  0  0  0  0  0
    1.9155    3.0725   -0.5346 O   0  0  0  0  0  0  0  0  0  0  0  0
   -0.2105    1.9181   -1.1822 O   0  0  0  0  0  0  0  0  0  0  0  0
   -5.2924   -3.2569    0.5017 N   0  0  0  0  0  0  0  0  0  0  0  0
    2.7845    2.7326    1.6207 C   0  0  0  0  0  0  0  0  0  0  0  0
    4.1055    1.5516   -1.3179 C   0  0  0  0  0  0  0  0  0  0  0  0
    5.1679   -1.9587    0.6431 O   0  0  0  0  0  0  0  0  0  0  0  0
    5.1732    0.7690   -1.7614 C   0  0  0  0  0  0  0  0  0  0  0  0
    5.5145   -0.4019   -1.0865 C   0  0  0  0  0  0  0  0  0  0  0  0
   -3.4144    1.7386   -1.5297 C   0  0  0  0  0  0  0  0  0  0  0  0
   -2.8251    0.2083   -3.2864 C   0  0  0  0  0  0  0  0  0  0  0  0
    0.0000    0.0000    0.0000 Ca  0  0  0  0  0 15  0  0  0  0  0  0
   -2.0822   -1.6204   -1.8764 H   0  0  0  0  0  0  0  0  0  0  0  0
    1.9639   -0.7917   -1.8780 H   0  0  0  0  0  0  0  0  0  0  0  0
   -1.0157   -1.8125    0.6640 H   0  0  0  0  0  0  0  0  0  0  0  0
    0.0912   -2.5863   -1.1033 H   0  0  0  0  0  0  0  0  0  0  0  0
   -2.4579    1.0080   -3.3158 H   0  0  0  0  0  0  0  0  0  0  0  0
    0.4235    3.0859   -1.6595 H   0  0  0  0  0  0  0  0  0  0  0  0
    0.5459   -0.7432    1.5566 H   0  0  0  0  0  0  0  0  0  0  0  0
   -0.2411   -1.0009   -3.3980 H   0  0  0  0  0  0  0  0  0  0  0  0
   -1.3302    3.3669    0.1190 H   0  0  0  0  0  0  0  0  0  0  0  0
   -2.1608    4.3498    1.2975 H   0  0  0  0  0  0  0  0  0  0  0  0
    3.2111   -2.9165    0.7436 H   0  0  0  0  0  0  0  0  0  0  0  0
    3.4993   -2.3129   -0.8987 H   0  0  0  0  0  0  0  0  0  0  0  0
    2.0432   -3.2410   -0.4931 H   0  0  0  0  0  0  0  0  0  0  0  0
    3.8435   -1.4296    2.2145 H   0  0  0  0  0  0  0  0  0  0  0  0
    3.4741    3.5169   -0.4986 H   0  0  0  0  0  0  0  0  0  0  0  0
    5.5916    0.1331    2.9368 H   0  0  0  0  0  0  0  0  0  0  0  0
    5.7541    2.3888    1.9122 H   0  0  0  0  0  0  0  0  0  0  0  0
   -3.8951   -3.3717    1.7926 H   0  0  0  0  0  0  0  0  0  0  0  0
   -3.1821   -1.9182    2.5037 H   0  0  0  0  0  0  0  0  0  0  0  0
   -2.1591   -3.2516    1.9271 H   0  0  0  0  0  0  0  0  0  0  0  0
   -4.5770   -0.6859    0.7247 H   0  0  0  0  0  0  0  0  0  0  0  0
   -5.0759   -2.2450    0.0803 H   0  0  0  0  0  0  0  0  0  0  0  0
   -4.2966   -1.1147   -0.9895 H   0  0  0  0  0  0  0  0  0  0  0  0
   -1.8437    1.0221    0.6386 H   0  0  0  0  0  0  0  0  0  0  0  0
    0.4185    1.7301    1.4729 H   0  0  0  0  0  0  0  0  0  0  0  0
   -1.5760   -1.1075   -1.5031 H   0  0  0  0  0  0  0  0  0  0  0  0
    0.5028    0.0128   -1.0450 H   0  0  0  0  0  0  0  0  0  0  0  0
   -1.4769   -0.9971    3.2470 H   0  0  0  0  0  0  0  0  0  0  0  0
    0.1237   -2.9851    2.0875 H   0  0  0  0  0  0  0  0  0  0  0  0
    1.0178    2.8942   -0.8957 H   0  0  0  0  0  0  0  0  0  0  0  0
   -1.0082    1.6860   -1.7119 H   0  0  0  0  0  0  0  0  0  0  0  0
   -5.4163   -2.6170   -0.2962 H   0  0  0  0  0  0  0  0  0  0  0  0
   -6.1069   -3.5761    0.9933 H   0  0  0  0  0  0  0  0  0  0  0  0
    3.0830    2.0472    2.4221 H   0  0  0  0  0  0  0  0  0  0  0  0
    3.6589    3.3431    1.3650 H   0  0  0  0  0  0  0  0  0  0  0  0
    2.0407    3.4237    2.0301 H   0  0  0  0  0  0  0  0  0  0  0  0
    3.8715    2.4783   -1.8413 H   0  0  0  0  0  0  0  0  0  0  0  0
    4.6055   -2.0663    1.4447 H   0  0  0  0  0  0  0  0  0  0  0  0
    5.7462    1.0795   -2.6327 H   0  0  0  0  0  0  0  0  0  0  0  0
    6.3561   -1.0023   -1.4201 H   0  0  0  0  0  0  0  0  0  0  0  0
   -4.4061    1.3578   -1.2703 H   0  0  0  0  0  0  0  0  0  0  0  0
   -3.0317    2.2895   -0.6637 H   0  0  0  0  0  0  0  0  0  0  0  0
   -3.5570    2.4964   -2.3161 H   0  0  0  0  0  0  0  0  0  0  0  0
   -2.6961    0.9995   -4.0362 H   0  0  0  0  0  0  0  0  0  0  0  0
   -3.8632   -0.1267   -3.3546 H   0  0  0  0  0  0  0  0  0  0  0  0
   -2.1703   -0.6142   -3.5992 H   0  0  0  0  0  0  0  0  0  0  0  0
  2  5  2  0
  3  1  1  0
  4  7  1  0
  5  1  1  0
  6  2  1  0
  7  1  1  0
  8  4  2  0
  9  2  1  0
 10  6  1  0
  3 11  1  0
 12  3  1  0
 13  9  1  0
 14 13  2  0
 15  4  1  0
 16  8  1  0
 11 17  1  0
 18  7  2  0
 19  9  2  0
 20 13  1  0
  1 21  1  6
 22 15  2  0
 23  5  1  0
 10 24  1  1
 12 25  1  0
 26 15  1  0
 10 27  1  0
 28 14  1  0
 29 20  1  0
 30 31  1  0
 31 20  2  0
 32 17  1  0
 33 17  1  0
 12  6  1  0
 11  8  1  0
 10 14  1  0
 30 28  2  0
 35 38  2  0
 36 34  1  0
 37 40  1  0
 38 34  1  0
 39 35  1  0
 40 34  1  0
 41 37  2  0
 42 35  1  0
 43 39  1  0
 36 44  1  0
 45 36  1  0
 46 42  1  0
 47 46  2  0
 48 37  1  0
 49 41  1  0
 44 50  1  0
 51 40  2  0
 52 42  2  0
 53 46  1  0
 34 54  1  1
 55 48  2  0
 56 38  1  0
 43 57  1  6
 45 58  1  0
 59 48  1  0
 43 60  1  0
 61 47  1  0
 62 53  1  0
 63 64  1  0
 64 53  2  0
 65 50  1  0
 66 50  1  0
 45 39  1  0
 44 41  1  0
 43 47  1  0
 63 61  2  0
  3 68  1  6
  6 69  1  6
 11 70  1  1
 12 71  1  1
 21 72  1  0
 23 73  1  0
 24 74  1  0
 25 75  1  0
 26 76  1  0
 26 77  1  0
 27 78  1  0
 27 79  1  0
 27 80  1  0
 28 81  1  0
 29 82  1  0
 30 83  1  0
 31 84  1  0
 32 85  1  0
 32 86  1  0
 32 87  1  0
 33 88  1  0
 33 89  1  0
 33 90  1  0
 36 91  1  1
 39 92  1  1
 44 93  1  6
 45 94  1  6
 54 95  1  0
 56 96  1  0
 57 97  1  0
 58 98  1  0
 59 99  1  0
 59100  1  0
 60101  1  0
 60102  1  0
 60103  1  0
 61104  1  0
 62105  1  0
 63106  1  0
 64107  1  0
 65108  1  0
 65109  1  0
 65110  1  0
 66111  1  0
 66112  1  0
 66113  1  0
M  CHG  3  16  -1  49  -1  67   2
M  END
$$$$
