
     RDKit          3D

113118  0  0  0  0  0  0  0  0999 V2000
    0.9797   -1.3098   -0.6551 C   0  0  2  0  0  0  0  0  0  0  0  0
   -1.4614   -0.7061   -0.7173 C   0  0  0  0  0  0  0  0  0  0  0  0
    1.2978    0.1820   -0.7172 C   0  0  2  0  0  0  0  0  0  0  0  0
    2.8046   -1.7133    1.0587 C   0  0  0  0  0  0  0  0  0  0  0  0
   -0.4861   -1.6109   -0.9144 C   0  0  0  0  0  0  0  0  0  0  0  0
   -1.2318    0.7104   -0.2604 C   0  0  1  0  0  0  0  0  0  0  0  0
    1.3534   -1.7811    0.7481 C   0  0  0  0  0  0  0  0  0  0  0  0
    3.4967   -0.6139    0.6375 C   0  0  0  0  0  0  0  0  0  0  0  0
   -2.8699   -1.0862   -0.9808 C   0  0  0  0  0  0  0  0  0  0  0  0
   -2.1881    1.0760    0.9296 C   0  0  1  0  0  0  0  0  0  0  0  0
    2.7509    0.5156   -0.1763 C   0  0  1  0  0  0  0  0  0  0  0  0
    0.2577    1.0487    0.0312 C   0  0  2  0  0  0  0  0  0  0  0  0
   -3.9447   -0.3042   -0.3295 C   0  0  0  0  0  0  0  0  0  0  0  0
   -3.6389    0.6993    0.6100 C   0  0  0  0  0  0  0  0  0  0  0  0
    3.4095   -2.8470    1.8409 C   0  0  0  0  0  0  0  0  0  0  0  0
    4.7041   -0.3159    0.8981 O   0  0  0  0  0  0  0  0  0  0  0  0
    3.4185    1.2486   -1.2982 N   0  0  0  0  0  0  0  0  0  0  0  0
    0.5155   -2.0922    1.5989 O   0  0  0  0  0  0  0  0  0  0  0  0
   -3.1514   -2.0443   -1.7043 O   0  0  0  0  0  0  0  0  0  0  0  0
   -5.2876   -0.6245   -0.6167 C   0  0  0  0  0  0  0  0  0  0  0  0
    1.7057   -2.0069   -1.6718 O   0  0  0  0  0  0  0  0  0  0  0  0
    2.8207   -3.9041    2.0424 O   0  0  0  0  0  0  0  0  0  0  0  0
   -0.7153   -2.8924   -1.4123 O   0  0  0  0  0  0  0  0  0  0  0  0
   -1.8143    0.3616    2.1120 O   0  0  0  0  0  0  0  0  0  0  0  0
    0.4442    2.4272   -0.3568 O   0  0  0  0  0  0  0  0  0  0  0  0
    4.6823   -2.6328    2.3148 N   0  0  0  0  0  0  0  0  0  0  0  0
   -2.0447    2.5731    1.2823 C   0  0  0  0  0  0  0  0  0  0  0  0
   -4.7205    1.3100    1.2837 C   0  0  0  0  0  0  0  0  0  0  0  0
   -5.6641   -1.5845   -1.5192 O   0  0  0  0  0  0  0  0  0  0  0  0
   -6.0482    0.9903    0.9861 C   0  0  0  0  0  0  0  0  0  0  0  0
   -6.3323    0.0321    0.0240 C   0  0  0  0  0  0  0  0  0  0  0  0
    4.0475    0.3431   -2.2622 C   0  0  0  0  0  0  0  0  0  0  0  0
    4.3927    2.2405   -0.8397 C   0  0  0  0  0  0  0  0  0  0  0  0
   -1.1076    0.3208   -1.9816 C   0  0  2  0  0  0  0  0  0  0  0  0
    1.0893    0.7142   -0.8844 C   0  0  0  0  0  0  0  0  0  0  0  0
   -1.3198   -0.8512   -1.0423 C   0  0  2  0  0  0  0  0  0  0  0  0
   -3.1888    1.4492   -0.9478 C   0  0  0  0  0  0  0  0  0  0  0  0
    0.0127    1.2208   -1.5295 C   0  0  0  0  0  0  0  0  0  0  0  0
    1.2992   -0.7728   -0.6558 C   0  0  1  0  0  0  0  0  0  0  0  0
   -2.4761    0.9838   -2.1744 C   0  0  0  0  0  0  0  0  0  0  0  0
   -2.8918    0.8587    0.2499 C   0  0  0  0  0  0  0  0  0  0  0  0
    2.1822    1.6317   -0.4641 C   0  0  0  0  0  0  0  0  0  0  0  0
    2.0496   -1.0947    0.6765 C   0  0  1  0  0  0  0  0  0  0  0  0
   -1.9269   -0.3839    0.3196 C   0  0  1  0  0  0  0  0  0  0  0  0
    0.0062   -1.6324   -0.8739 C   0  0  2  0  0  0  0  0  0  0  0  0
    3.3307    1.0829    0.2898 C   0  0  0  0  0  0  0  0  0  0  0  0
    3.2853   -0.2088    0.8443 C   0  0  0  0  0  0  0  0  0  0  0  0
   -4.1585    2.6005   -1.0952 C   0  0  0  0  0  0  0  0  0  0  0  0
   -3.2584    1.2124    1.4138 O   0  0  0  0  0  0  0  0  0  0  0  0
   -2.4366   -1.6414    0.9608 N   0  0  0  0  0  0  0  0  0  0  0  0
   -2.9274    1.0990   -3.3205 O   0  0  0  0  0  0  0  0  0  0  0  0
    2.1634    2.8330   -0.7491 O   0  0  0  0  0  0  0  0  0  0  0  0
    4.4747    1.8866    0.4668 C   0  0  0  0  0  0  0  0  0  0  0  0
   -0.6901   -0.2010   -3.2735 O   0  0  0  0  0  0  0  0  0  0  0  0
   -4.5981    3.0021   -2.1683 O   0  0  0  0  0  0  0  0  0  0  0  0
   -0.1378    2.5580   -1.8506 O   0  0  0  0  0  0  0  0  0  0  0  0
    1.2300   -0.7870    1.7990 O   0  0  0  0  0  0  0  0  0  0  0  0
    0.2281   -2.4126   -2.0734 O   0  0  0  0  0  0  0  0  0  0  0  0
   -4.5421    3.2122    0.0599 N   0  0  0  0  0  0  0  0  0  0  0  0
    2.4196   -2.5972    0.7426 C   0  0  0  0  0  0  0  0  0  0  0  0
    4.4033   -0.6353    1.6026 C   0  0  0  0  0  0  0  0  0  0  0  0
    4.6017    3.1478   -0.0553 O   0  0  0  0  0  0  0  0  0  0  0  0
    5.5358    0.1683    1.7630 C   0  0  0  0  0  0  0  0  0  0  0  0
    5.5733    1.4303    1.1893 C   0  0  0  0  0  0  0  0  0  0  0  0
   -2.4255   -1.5914    2.4254 C   0  0  0  0  0  0  0  0  0  0  0  0
   -3.7918   -1.9879    0.5068 C   0  0  0  0  0  0  0  0  0  0  0  0
    0.0000    0.0000    0.0000 Ca  0  0  0  0  0 15  0  0  0  0  0  0
    1.2382    0.4796   -1.7754 H   0  0  0  0  0  0  0  0  0  0  0  0
   -1.5384    1.3420   -1.1110 H   0  0  0  0  0  0  0  0  0  0  0  0
    2.5948    1.2860    0.5975 H   0  0  0  0  0  0  0  0  0  0  0  0
    0.4513    0.9909    1.1094 H   0  0  0  0  0  0  0  0  0  0  0  0
    1.2856   -2.8890   -1.7253 H   0  0  0  0  0  0  0  0  0  0  0  0
   -1.6733   -2.9759   -1.6168 H   0  0  0  0  0  0  0  0  0  0  0  0
   -1.9596   -0.5952    1.9813 H   0  0  0  0  0  0  0  0  0  0  0  0
    1.3563    2.5255   -0.7050 H   0  0  0  0  0  0  0  0  0  0  0  0
    4.6363   -1.9186    3.0374 H   0  0  0  0  0  0  0  0  0  0  0  0
    5.1517   -2.0155    1.6272 H   0  0  0  0  0  0  0  0  0  0  0  0
   -2.6437    2.8586    2.1519 H   0  0  0  0  0  0  0  0  0  0  0  0
   -1.0215    2.8218    1.5877 H   0  0  0  0  0  0  0  0  0  0  0  0
   -2.3314    3.2121    0.4415 H   0  0  0  0  0  0  0  0  0  0  0  0
   -4.5486    2.0467    2.0653 H   0  0  0  0  0  0  0  0  0  0  0  0
   -4.8524   -2.0571   -1.8137 H   0  0  0  0  0  0  0  0  0  0  0  0
   -6.8574    1.4876    1.5150 H   0  0  0  0  0  0  0  0  0  0  0  0
   -7.3612   -0.2265   -0.2103 H   0  0  0  0  0  0  0  0  0  0  0  0
    4.8959   -0.2098   -1.8533 H   0  0  0  0  0  0  0  0  0  0  0  0
    3.3285   -0.3718   -2.6705 H   0  0  0  0  0  0  0  0  0  0  0  0
    4.4168    0.9136   -3.1229 H   0  0  0  0  0  0  0  0  0  0  0  0
    3.9469    2.9205   -0.1048 H   0  0  0  0  0  0  0  0  0  0  0  0
    4.6940    2.8729   -1.6870 H   0  0  0  0  0  0  0  0  0  0  0  0
    5.3092    1.8130   -0.4205 H   0  0  0  0  0  0  0  0  0  0  0  0
   -2.0256   -1.5285   -1.5491 H   0  0  0  0  0  0  0  0  0  0  0  0
    2.0044   -1.0614   -1.4543 H   0  0  0  0  0  0  0  0  0  0  0  0
   -1.0695   -0.0447    0.9163 H   0  0  0  0  0  0  0  0  0  0  0  0
   -0.1267   -2.3724   -0.0842 H   0  0  0  0  0  0  0  0  0  0  0  0
   -1.2011    0.3438   -3.9129 H   0  0  0  0  0  0  0  0  0  0  0  0
    0.6148    3.0550   -1.4593 H   0  0  0  0  0  0  0  0  0  0  0  0
    0.5197   -1.4530    1.8597 H   0  0  0  0  0  0  0  0  0  0  0  0
    0.0093   -1.8155   -2.8228 H   0  0  0  0  0  0  0  0  0  0  0  0
   -4.2258    2.7580    0.9268 H   0  0  0  0  0  0  0  0  0  0  0  0
   -5.2486    3.9244    0.0616 H   0  0  0  0  0  0  0  0  0  0  0  0
    2.7172   -2.8839    1.7579 H   0  0  0  0  0  0  0  0  0  0  0  0
    1.5777   -3.2572    0.5237 H   0  0  0  0  0  0  0  0  0  0  0  0
    3.2282   -2.8498    0.0498 H   0  0  0  0  0  0  0  0  0  0  0  0
    4.4056   -1.6019    2.1002 H   0  0  0  0  0  0  0  0  0  0  0  0
    3.7142    3.4175   -0.3904 H   0  0  0  0  0  0  0  0  0  0  0  0
    6.3770   -0.1906    2.3506 H   0  0  0  0  0  0  0  0  0  0  0  0
    6.4479    2.0662    1.3086 H   0  0  0  0  0  0  0  0  0  0  0  0
   -2.5843   -2.5990    2.8220 H   0  0  0  0  0  0  0  0  0  0  0  0
   -3.2007   -0.9515    2.8574 H   0  0  0  0  0  0  0  0  0  0  0  0
   -1.4570   -1.2610    2.8098 H   0  0  0  0  0  0  0  0  0  0  0  0
   -3.9092   -1.9139   -0.5781 H   0  0  0  0  0  0  0  0  0  0  0  0
   -4.0085   -3.0306    0.7678 H   0  0  0  0  0  0  0  0  0  0  0  0
   -4.5671   -1.3648    0.9685 H   0  0  0  0  0  0  0  0  0  0  0  0
  2  5  2  0
  3  1  1  0
  4  7  1  0
  5  1  1  0
  6  2  1  0
  7  1  1  0
  8  4  2  0
  9  2  1  0
 10  6  1  0
  3 11  1  0
 12  3  1  0
 13  9  1  0
 14 13  2  0
 15  4  1  0
 16  8  1  0
 11 17  1  0
 18  7  2  0
 19  9  2  0
 20 13  1  0
  1 21  1  6
 22 15  2  0
 23  5  1  0
 10 24  1  1
 12 25  1  0
 26 15  1  0
 10 27  1  0
 28 14  1  0
 29 20  1  0
 30 31  1  0
 31 20  2  0
 32 17  1  0
 33 17  1  0
 12  6  1  0
 11  8  1  0
 10 14  1  0
 30 28  2  0
 35 38  2  0
 36 34  1  0
 37 40  1  0
 38 34  1  0
 39 35  1  0
 40 34  1  0
 41 37  2  0
 42 35  1  0
 43 39  1  0
 36 44  1  0
 45 36  1  0
 46 42  1  0
 47 46  2  0
 48 37  1  0
 49 41  1  0
 44 50  1  0
 51 40  2  0
 52 42  2  0
 53 46  1  0
 34 54  1  6
 55 48  2  0
 56 38  1  0
 43 57  1  1
 45 58  1  0
 59 48  1  0
 43 60  1  0
 61 47  1  0
 62 53  1  0
 63 64  1  0
 64 53  2  0
 65 50  1  0
 66 50  1  0
 45 39  1  0
 44 41  1  0
 43 47  1  0
 63 61  2  0
  3 68  1  6
  6 69  1  6
 11 70  1  1
 12 71  1  1
 21 72  1  0
 23 73  1  0
 24 74  1  0
 25 75  1  0
 26 76  1  0
 26 77  1  0
 27 78  1  0
 27 79  1  0
 27 80  1  0
 28 81  1  0
 29 82  1  0
 30 83  1  0
 31 84  1  0
 32 85  1  0
 32 86  1  0
 32 87  1  0
 33 88  1  0
 33 89  1  0
 33 90  1  0
 36 91  1  6
 39 92  1  6
 44 93  1  1
 45 94  1  1
 54 95  1  0
 56 96  1  0
 57 97  1  0
 58 98  1  0
 59 99  1  0
 59100  1  0
 60101  1  0
 60102  1  0
 60103  1  0
 61104  1  0
 62105  1  0
 63106  1  0
 64107  1  0
 65108  1  0
 65109  1  0
 65110  1  0
 66111  1  0
 66112  1  0
 66113  1  0
M  CHG  3  16  -1  49  -1  67   2
M  END
$$$$
