
     RDKit          3D

 21 13  0  0  0  0  0  0  0  0999 V2000
   -0.0062    0.3808   -0.0000 O   0  0  0  0  0  0  0  0  0  0  0  0
    0.8905    0.0000    0.0000 Mg  0  0  0  0  0  2  0  0  0  0  0  0
   -0.8905    0.0000    0.0000 O   0  0  0  0  0  0  0  0  0  0  0  0
    0.8990    0.0000    0.0000 Mg  0  0  0  0  0  2  0  0  0  0  0  0
   -0.8990    0.0000    0.0000 O   0  0  0  0  0  0  0  0  0  0  0  0
    0.8977    0.0000    0.0000 Mg  0  0  0  0  0  2  0  0  0  0  0  0
   -0.8977    0.0000    0.0000 O   0  0  0  0  0  0  0  0  0  0  0  0
   -0.0045    0.1135   -0.0000 Si  0  0  0  0  0  4  0  0  0  0  0  0
   -1.5611   -0.0570   -0.0000 O   0  0  0  0  0  0  0  0  0  0  0  0
    1.5656   -0.0565    0.0000 O   0  0  0  0  0  0  0  0  0  0  0  0
   -0.0857    0.4651    0.0000 Si  0  0  0  0  0  4  0  0  0  0  0  0
   -1.4014   -0.4157    0.0000 O   0  0  0  0  0  0  0  0  0  0  0  0
    1.4871    0.6567    0.0000 O   0  0  0  0  0  0  0  0  0  0  0  0
   -0.0052    0.1101   -0.0000 Si  0  0  0  0  0  4  0  0  0  0  0  0
    1.5667   -0.0548    0.0000 O   0  0  0  0  0  0  0  0  0  0  0  0
   -1.5614   -0.0553   -0.0000 O   0  0  0  0  0  0  0  0  0  0  0  0
   -0.0794    0.3724    0.0000 Si  0  0  0  0  0  4  0  0  0  0  0  0
    1.4895    0.5802    0.0000 O   0  0  0  0  0  0  0  0  0  0  0  0
   -1.4101   -0.4857    0.0000 O   0  0  0  0  0  0  0  0  0  0  0  0
    0.8133   -0.1883    0.0000 H   0  0  0  0  0  0  0  0  0  0  0  0
   -0.8071   -0.1926   -0.0000 H   0  0  0  0  0  0  0  0  0  0  0  0
  2  3  2  0
  4  5  2  0
  6  7  2  0
  8  9  2  0
  8 10  2  0
 11 12  2  0
 11 13  2  0
 14 15  2  0
 14 16  2  0
 17 18  2  0
 17 19  2  0
  1 20  1  0
  1 21  1  0
M  END
$$$$
