
     RDKit          3D

 21 13  0  0  0  0  0  0  0  0999 V2000
   -0.0011    0.3710   -0.0000 O   0  0  0  0  0  0  0  0  0  0  0  0
    0.8933    0.0000    0.0000 Mg  0  0  0  0  0  2  0  0  0  0  0  0
   -0.8933    0.0000    0.0000 O   0  0  0  0  0  0  0  0  0  0  0  0
    0.8984    0.0000    0.0000 Mg  0  0  0  0  0  2  0  0  0  0  0  0
   -0.8984    0.0000    0.0000 O   0  0  0  0  0  0  0  0  0  0  0  0
    0.8967    0.0000    0.0000 Mg  0  0  0  0  0  2  0  0  0  0  0  0
   -0.8967    0.0000    0.0000 O   0  0  0  0  0  0  0  0  0  0  0  0
   -0.0022    0.1200   -0.0000 Si  0  0  0  0  0  4  0  0  0  0  0  0
    1.5664   -0.0599    0.0000 O   0  0  0  0  0  0  0  0  0  0  0  0
   -1.5641   -0.0601   -0.0000 O   0  0  0  0  0  0  0  0  0  0  0  0
   -0.0042    0.0786   -0.0000 Si  0  0  0  0  0  4  0  0  0  0  0  0
    1.5658   -0.0392    0.0000 O   0  0  0  0  0  0  0  0  0  0  0  0
   -1.5616   -0.0395   -0.0000 O   0  0  0  0  0  0  0  0  0  0  0  0
   -0.0035    0.0394   -0.0000 Si  0  0  0  0  0  4  0  0  0  0  0  0
    1.5688   -0.0197    0.0000 O   0  0  0  0  0  0  0  0  0  0  0  0
   -1.5653   -0.0198   -0.0000 O   0  0  0  0  0  0  0  0  0  0  0  0
   -0.0023    0.0861   -0.0000 Si  0  0  0  0  0  4  0  0  0  0  0  0
   -1.5628   -0.0432   -0.0000 O   0  0  0  0  0  0  0  0  0  0  0  0
    1.5652   -0.0430    0.0000 O   0  0  0  0  0  0  0  0  0  0  0  0
    0.8173   -0.1852    0.0000 H   0  0  0  0  0  0  0  0  0  0  0  0
   -0.8162   -0.1858   -0.0000 H   0  0  0  0  0  0  0  0  0  0  0  0
  2  3  2  0
  4  5  2  0
  6  7  2  0
  8  9  2  0
  8 10  2  0
 11 12  2  0
 11 13  2  0
 14 15  2  0
 14 16  2  0
 17 18  2  0
 17 19  2  0
  1 20  1  0
  1 21  1  0
M  END
$$$$
