
     RDKit          3D

 21 13  0  0  0  0  0  0  0  0999 V2000
   -0.0035    0.3776   -0.0000 O   0  0  0  0  0  0  0  0  0  0  0  0
    0.8905    0.0000    0.0000 Mg  0  0  0  0  0  2  0  0  0  0  0  0
   -0.8905    0.0000    0.0000 O   0  0  0  0  0  0  0  0  0  0  0  0
    0.8966    0.0000    0.0000 Mg  0  0  0  0  0  2  0  0  0  0  0  0
   -0.8966    0.0000    0.0000 O   0  0  0  0  0  0  0  0  0  0  0  0
    0.8986    0.0000    0.0000 Mg  0  0  0  0  0  2  0  0  0  0  0  0
   -0.8986    0.0000    0.0000 O   0  0  0  0  0  0  0  0  0  0  0  0
   -0.0021    0.0836   -0.0000 Si  0  0  0  0  0  4  0  0  0  0  0  0
    1.5682   -0.0417    0.0000 O   0  0  0  0  0  0  0  0  0  0  0  0
   -1.5661   -0.0419   -0.0000 O   0  0  0  0  0  0  0  0  0  0  0  0
   -0.0857    0.6964    0.0000 Si  0  0  0  0  0  4  0  0  0  0  0  0
    1.4894    0.8475    0.0000 O   0  0  0  0  0  0  0  0  0  0  0  0
   -1.4037   -0.1821    0.0000 O   0  0  0  0  0  0  0  0  0  0  0  0
   -0.0941   -0.0859    0.0000 Si  0  0  0  0  0  4  0  0  0  0  0  0
    1.4708   -0.3161    0.0000 O   0  0  0  0  0  0  0  0  0  0  0  0
   -1.3768    0.8444    0.0000 O   0  0  0  0  0  0  0  0  0  0  0  0
   -0.0011    0.1502   -0.0000 Si  0  0  0  0  0  4  0  0  0  0  0  0
   -1.5628   -0.0752   -0.0000 O   0  0  0  0  0  0  0  0  0  0  0  0
    1.5639   -0.0750    0.0000 O   0  0  0  0  0  0  0  0  0  0  0  0
   -0.8082   -0.1901   -0.0000 H   0  0  0  0  0  0  0  0  0  0  0  0
    0.8117   -0.1876    0.0000 H   0  0  0  0  0  0  0  0  0  0  0  0
  2  3  2  0
  4  5  2  0
  6  7  2  0
  8  9  2  0
  8 10  2  0
 11 12  2  0
 11 13  2  0
 14 15  2  0
 14 16  2  0
 17 18  2  0
 17 19  2  0
  1 20  1  0
  1 21  1  0
M  END
$$$$
