
     RDKit          3D

 21 13  0  0  0  0  0  0  0  0999 V2000
   -0.0024    0.3994   -0.0000 O   0  0  0  0  0  0  0  0  0  0  0  0
    0.8898    0.0000    0.0000 Mg  0  0  0  0  0  2  0  0  0  0  0  0
   -0.8898    0.0000    0.0000 O   0  0  0  0  0  0  0  0  0  0  0  0
    0.8963    0.0000    0.0000 Mg  0  0  0  0  0  2  0  0  0  0  0  0
   -0.8963    0.0000    0.0000 O   0  0  0  0  0  0  0  0  0  0  0  0
    0.8925    0.0000    0.0000 Mg  0  0  0  0  0  2  0  0  0  0  0  0
   -0.8925    0.0000    0.0000 O   0  0  0  0  0  0  0  0  0  0  0  0
   -0.0012    0.1145   -0.0000 Si  0  0  0  0  0  4  0  0  0  0  0  0
    1.5616   -0.0572    0.0000 O   0  0  0  0  0  0  0  0  0  0  0  0
   -1.5603   -0.0573   -0.0000 O   0  0  0  0  0  0  0  0  0  0  0  0
   -0.0002    0.1402   -0.0000 Si  0  0  0  0  0  4  0  0  0  0  0  0
   -1.5554   -0.0701   -0.0000 O   0  0  0  0  0  0  0  0  0  0  0  0
    1.5556   -0.0701    0.0000 O   0  0  0  0  0  0  0  0  0  0  0  0
   -0.0050    0.1246   -0.0000 Si  0  0  0  0  0  4  0  0  0  0  0  0
    1.5600   -0.0620    0.0000 O   0  0  0  0  0  0  0  0  0  0  0  0
   -1.5550   -0.0626   -0.0000 O   0  0  0  0  0  0  0  0  0  0  0  0
   -0.0019    0.0987   -0.0000 Si  0  0  0  0  0  4  0  0  0  0  0  0
    1.5603   -0.0492    0.0000 O   0  0  0  0  0  0  0  0  0  0  0  0
   -1.5584   -0.0494   -0.0000 O   0  0  0  0  0  0  0  0  0  0  0  0
   -0.7914   -0.2007   -0.0000 H   0  0  0  0  0  0  0  0  0  0  0  0
    0.7937   -0.1988    0.0000 H   0  0  0  0  0  0  0  0  0  0  0  0
  2  3  2  0
  4  5  2  0
  6  7  2  0
  8  9  2  0
  8 10  2  0
 11 12  2  0
 11 13  2  0
 14 15  2  0
 14 16  2  0
 17 18  2  0
 17 19  2  0
  1 20  1  0
  1 21  1  0
M  END
$$$$
