
     RDKit          3D

 19 11  0  0  0  0  0  0  0  0999 V2000
    0.0000    0.0000    0.0000 O   0  0  0  0  0  0  0  0  0  0  0  0
    0.8989    0.0000    0.0000 Mg  0  0  0  0  0  2  0  0  0  0  0  0
   -0.8989    0.0000    0.0000 O   0  0  0  0  0  0  0  0  0  0  0  0
    0.8959    0.0000    0.0000 Mg  0  0  0  0  0  2  0  0  0  0  0  0
   -0.8959    0.0000    0.0000 O   0  0  0  0  0  0  0  0  0  0  0  0
    0.8967    0.0000    0.0000 Mg  0  0  0  0  0  2  0  0  0  0  0  0
   -0.8967    0.0000    0.0000 O   0  0  0  0  0  0  0  0  0  0  0  0
    0.0741    0.7488    0.0000 Si  0  0  0  0  0  4  0  0  0  0  0  0
    1.4298   -0.0746    0.0000 O   0  0  0  0  0  0  0  0  0  0  0  0
   -1.5040    0.5902    0.0000 O   0  0  0  0  0  0  0  0  0  0  0  0
   -0.0008    0.0693   -0.0000 Si  0  0  0  0  0  4  0  0  0  0  0  0
   -1.5697   -0.0347   -0.0000 O   0  0  0  0  0  0  0  0  0  0  0  0
    1.5705   -0.0346    0.0000 O   0  0  0  0  0  0  0  0  0  0  0  0
   -0.0004    0.1385   -0.0000 Si  0  0  0  0  0  4  0  0  0  0  0  0
    1.5554   -0.0692    0.0000 O   0  0  0  0  0  0  0  0  0  0  0  0
   -1.5550   -0.0693   -0.0000 O   0  0  0  0  0  0  0  0  0  0  0  0
   -0.0891    0.6298    0.0000 Si  0  0  0  0  0  4  0  0  0  0  0  0
    1.4744    0.8841    0.0000 O   0  0  0  0  0  0  0  0  0  0  0  0
   -1.3853   -0.2784    0.0000 O   0  0  0  0  0  0  0  0  0  0  0  0
  2  3  2  0
  4  5  2  0
  6  7  2  0
  8  9  2  0
  8 10  2  0
 11 12  2  0
 11 13  2  0
 14 15  2  0
 14 16  2  0
 17 18  2  0
 17 19  2  0
M  END
