
     RDKit          3D

 21 13  0  0  0  0  0  0  0  0999 V2000
   -0.0001    0.3707   -0.0000 O   0  0  0  0  0  0  0  0  0  0  0  0
    0.8961    0.0000    0.0000 Mg  0  0  0  0  0  2  0  0  0  0  0  0
   -0.8961    0.0000    0.0000 O   0  0  0  0  0  0  0  0  0  0  0  0
    0.8958    0.0000    0.0000 Mg  0  0  0  0  0  2  0  0  0  0  0  0
   -0.8958    0.0000    0.0000 O   0  0  0  0  0  0  0  0  0  0  0  0
    0.8992    0.0000    0.0000 Mg  0  0  0  0  0  2  0  0  0  0  0  0
   -0.8992    0.0000    0.0000 O   0  0  0  0  0  0  0  0  0  0  0  0
    0.0632   -0.7628    0.0000 Si  0  0  0  0  0  4  0  0  0  0  0  0
    1.4402    0.0155    0.0000 O   0  0  0  0  0  0  0  0  0  0  0  0
   -1.5034   -0.9767    0.0000 O   0  0  0  0  0  0  0  0  0  0  0  0
    0.1034    0.3073    0.0000 Si  0  0  0  0  0  4  0  0  0  0  0  0
   -1.4633    0.5320    0.0000 O   0  0  0  0  0  0  0  0  0  0  0  0
    1.3600   -0.6568    0.0000 O   0  0  0  0  0  0  0  0  0  0  0  0
    0.0080    0.1943    0.0000 Si  0  0  0  0  0  4  0  0  0  0  0  0
    1.5327    0.6184    0.0000 O   0  0  0  0  0  0  0  0  0  0  0  0
   -1.5406    0.3872    0.0000 O   0  0  0  0  0  0  0  0  0  0  0  0
   -0.0045    0.1181   -0.0000 Si  0  0  0  0  0  4  0  0  0  0  0  0
    1.5640   -0.0588    0.0000 O   0  0  0  0  0  0  0  0  0  0  0  0
   -1.5594   -0.0593   -0.0000 O   0  0  0  0  0  0  0  0  0  0  0  0
    0.8285   -0.1853    0.0000 H   0  0  0  0  0  0  0  0  0  0  0  0
   -0.8284   -0.1854   -0.0000 H   0  0  0  0  0  0  0  0  0  0  0  0
  2  3  2  0
  4  5  2  0
  6  7  2  0
  8  9  2  0
  8 10  2  0
 11 12  2  0
 11 13  2  0
 14 15  2  0
 14 16  2  0
 17 18  2  0
 17 19  2  0
  1 20  1  0
  1 21  1  0
M  END
$$$$
