
     RDKit          3D

 21 13  0  0  0  0  0  0  0  0999 V2000
   -0.0061    0.3630   -0.0000 O   0  0  0  0  0  0  0  0  0  0  0  0
    0.8971    0.0000    0.0000 Mg  0  0  0  0  0  2  0  0  0  0  0  0
   -0.8971    0.0000    0.0000 O   0  0  0  0  0  0  0  0  0  0  0  0
    0.8910    0.0000    0.0000 Mg  0  0  0  0  0  2  0  0  0  0  0  0
   -0.8910    0.0000    0.0000 O   0  0  0  0  0  0  0  0  0  0  0  0
    0.8944    0.0000    0.0000 Mg  0  0  0  0  0  2  0  0  0  0  0  0
   -0.8944    0.0000    0.0000 O   0  0  0  0  0  0  0  0  0  0  0  0
   -0.0026    0.0905   -0.0000 Si  0  0  0  0  0  4  0  0  0  0  0  0
   -1.5616   -0.0454   -0.0000 O   0  0  0  0  0  0  0  0  0  0  0  0
    1.5642   -0.0451    0.0000 O   0  0  0  0  0  0  0  0  0  0  0  0
   -0.0054    0.0844   -0.0000 Si  0  0  0  0  0  4  0  0  0  0  0  0
   -1.5617   -0.0424   -0.0000 O   0  0  0  0  0  0  0  0  0  0  0  0
    1.5672   -0.0420    0.0000 O   0  0  0  0  0  0  0  0  0  0  0  0
   -0.0030    0.1711   -0.0000 Si  0  0  0  0  0  4  0  0  0  0  0  0
    1.5561   -0.0853    0.0000 O   0  0  0  0  0  0  0  0  0  0  0  0
   -1.5531   -0.0858   -0.0000 O   0  0  0  0  0  0  0  0  0  0  0  0
   -0.0032    0.1134   -0.0000 Si  0  0  0  0  0  4  0  0  0  0  0  0
    1.5669   -0.0565    0.0000 O   0  0  0  0  0  0  0  0  0  0  0  0
   -1.5636   -0.0569   -0.0000 O   0  0  0  0  0  0  0  0  0  0  0  0
   -0.8245   -0.1835   -0.0000 H   0  0  0  0  0  0  0  0  0  0  0  0
    0.8305   -0.1795    0.0000 H   0  0  0  0  0  0  0  0  0  0  0  0
  2  3  2  0
  4  5  2  0
  6  7  2  0
  8  9  2  0
  8 10  2  0
 11 12  2  0
 11 13  2  0
 14 15  2  0
 14 16  2  0
 17 18  2  0
 17 19  2  0
  1 20  1  0
  1 21  1  0
M  END
$$$$
