
     RDKit          3D

 68 69  0  0  0  0  0  0  0  0999 V2000
   -2.0160   -0.7313    0.9340 O   0  0  0  0  0  0  0  0  0  0  0  0
   -1.4495    0.4290    0.5570 C   0  0  0  0  0  0  0  0  0  0  0  0
   -0.6016    0.3249   -0.7038 C   0  0  2  0  0  0  0  0  0  0  0  0
    0.4500   -0.7795   -0.6105 C   0  0  2  0  0  0  0  0  0  0  0  0
    1.5097   -0.4454    0.4361 C   0  0  0  0  0  0  0  0  0  0  0  0
    1.0453   -0.4770    1.7018 O   0  0  0  0  0  0  0  0  0  0  0  0
   -1.6845    1.4661    1.1599 O   0  0  0  0  0  0  0  0  0  0  0  0
    1.0615   -0.9432   -1.9009 O   0  0  0  0  0  0  0  0  0  0  0  0
    0.0329    1.5676   -1.0388 O   0  0  0  0  0  0  0  0  0  0  0  0
    2.6854   -0.1895    0.2256 O   0  0  0  0  0  0  0  0  0  0  0  0
    1.4495    0.0077   -1.0464 N   0  0  0  0  0  0  0  0  0  0  0  0
    2.7186   -0.7143   -1.0108 C   0  0  0  0  0  0  0  0  0  0  0  0
    3.6240   -0.1865    0.0191 C   0  0  0  0  0  0  0  0  0  0  0  0
    4.3643    0.2461    0.8604 C   0  0  0  0  0  0  0  0  0  0  0  0
    0.5945   -0.2505    0.1096 C   0  0  2  0  0  0  0  0  0  0  0  0
    0.0571   -1.6992    0.1553 C   0  0  0  0  0  0  0  0  0  0  0  0
   -1.2685   -1.6445    0.9247 C   0  0  0  0  0  0  0  0  0  0  0  0
   -1.7583   -0.2808    0.5522 C   0  0  0  0  0  0  0  0  0  0  0  0
   -0.7068    0.5159    0.0762 C   0  0  0  0  0  0  0  0  0  0  0  0
   -0.9334    1.8386   -0.2776 C   0  0  0  0  0  0  0  0  0  0  0  0
   -3.0444    0.2194    0.6751 C   0  0  0  0  0  0  0  0  0  0  0  0
   -3.2782    1.5438    0.3025 C   0  0  0  0  0  0  0  0  0  0  0  0
   -2.2303    2.3480   -0.1702 C   0  0  0  0  0  0  0  0  0  0  0  0
    1.7746    0.2516   -0.0436 N   0  0  0  0  0  0  0  0  0  0  0  0
    2.5547   -0.8660   -0.5547 C   0  0  0  0  0  0  0  0  0  0  0  0
    3.6897   -1.1211    0.3423 C   0  0  0  0  0  0  0  0  0  0  0  0
    4.6168   -1.3301    1.0771 C   0  0  0  0  0  0  0  0  0  0  0  0
    0.5808    0.5107   -0.8375 C   0  0  2  0  0  0  0  0  0  0  0  0
    0.2010    2.0041   -0.7214 C   0  0  0  0  0  0  0  0  0  0  0  0
   -1.3012    2.0833   -1.0145 C   0  0  0  0  0  0  0  0  0  0  0  0
   -1.7627    0.7721   -0.4577 C   0  0  0  0  0  0  0  0  0  0  0  0
   -0.6923   -0.1290   -0.3403 C   0  0  0  0  0  0  0  0  0  0  0  0
   -0.9136   -1.4161    0.1272 C   0  0  0  0  0  0  0  0  0  0  0  0
   -3.0559    0.4099   -0.1173 C   0  0  0  0  0  0  0  0  0  0  0  0
   -3.2763   -0.8806    0.3640 C   0  0  0  0  0  0  0  0  0  0  0  0
   -2.2129   -1.7867    0.4862 C   0  0  0  0  0  0  0  0  0  0  0  0
   -2.5253   -0.5068    1.7424 H   0  0  0  0  0  0  0  0  0  0  0  0
   -1.2868    0.1123   -1.5329 H   0  0  0  0  0  0  0  0  0  0  0  0
    0.0104   -1.7478   -0.3501 H   0  0  0  0  0  0  0  0  0  0  0  0
    1.8352   -0.2563    2.2419 H   0  0  0  0  0  0  0  0  0  0  0  0
    1.5252   -0.0990   -2.0755 H   0  0  0  0  0  0  0  0  0  0  0  0
   -0.5919    2.2759   -0.7861 H   0  0  0  0  0  0  0  0  0  0  0  0
    1.6521    1.0038   -1.0911 H   0  0  0  0  0  0  0  0  0  0  0  0
    3.1963   -0.5966   -1.9904 H   0  0  0  0  0  0  0  0  0  0  0  0
    2.5649   -1.7907   -0.8812 H   0  0  0  0  0  0  0  0  0  0  0  0
    5.0206    0.6305    1.6069 H   0  0  0  0  0  0  0  0  0  0  0  0
    1.0973   -0.0002    1.0525 H   0  0  0  0  0  0  0  0  0  0  0  0
    0.7659   -2.3964    0.6143 H   0  0  0  0  0  0  0  0  0  0  0  0
   -0.1420   -2.0642   -0.8633 H   0  0  0  0  0  0  0  0  0  0  0  0
   -1.9496   -2.4372    0.6031 H   0  0  0  0  0  0  0  0  0  0  0  0
   -1.1041   -1.7048    2.0054 H   0  0  0  0  0  0  0  0  0  0  0  0
   -0.1276    2.4728   -0.6308 H   0  0  0  0  0  0  0  0  0  0  0  0
   -3.8528   -0.3991    1.0512 H   0  0  0  0  0  0  0  0  0  0  0  0
   -4.2797    1.9589    0.3837 H   0  0  0  0  0  0  0  0  0  0  0  0
   -2.4291    3.3795   -0.4503 H   0  0  0  0  0  0  0  0  0  0  0  0
    1.5076    0.0768    0.9240 H   0  0  0  0  0  0  0  0  0  0  0  0
    2.9358   -0.6286   -1.5547 H   0  0  0  0  0  0  0  0  0  0  0  0
    1.9532   -1.7762   -0.6383 H   0  0  0  0  0  0  0  0  0  0  0  0
    5.4398   -1.5073    1.7301 H   0  0  0  0  0  0  0  0  0  0  0  0
    0.7232    0.2636   -1.8979 H   0  0  0  0  0  0  0  0  0  0  0  0
    0.7884    2.6370   -1.3954 H   0  0  0  0  0  0  0  0  0  0  0  0
    0.3793    2.3710    0.3008 H   0  0  0  0  0  0  0  0  0  0  0  0
   -1.4971    2.1276   -2.0907 H   0  0  0  0  0  0  0  0  0  0  0  0
   -1.7618    2.9382   -0.5118 H   0  0  0  0  0  0  0  0  0  0  0  0
   -0.1072   -2.1345    0.2187 H   0  0  0  0  0  0  0  0  0  0  0  0
   -3.8795    1.1094   -0.2192 H   0  0  0  0  0  0  0  0  0  0  0  0
   -4.2808   -1.1889    0.6433 H   0  0  0  0  0  0  0  0  0  0  0  0
   -2.4036   -2.7902    0.8592 H   0  0  0  0  0  0  0  0  0  0  0  0
  1  2  1  0
  2  3  1  0
  3  4  1  0
  4  5  1  0
  5  6  1  0
  2  7  2  0
  4  8  1  0
  3  9  1  0
  5 10  2  0
 12 11  1  0
 15 11  1  0
 12 13  1  0
 13 14  3  0
 16 15  1  0
 19 15  1  0
 16 17  1  0
 17 18  1  0
 18 19  2  0
 18 21  1  0
 20 19  1  0
 23 20  2  0
 21 22  2  0
 22 23  1  0
 25 24  1  0
 28 24  1  0
 25 26  1  0
 26 27  3  0
 29 28  1  0
 32 28  1  0
 29 30  1  0
 30 31  1  0
 31 32  2  0
 31 34  1  0
 33 32  1  0
 36 33  2  0
 34 35  2  0
 35 36  1  0
  1 37  1  0
  3 38  1  6
  4 39  1  1
  6 40  1  0
  8 41  1  0
  9 42  1  0
 11 43  1  0
 12 44  1  0
 12 45  1  0
 14 46  1  0
 15 47  1  1
 16 48  1  0
 16 49  1  0
 17 50  1  0
 17 51  1  0
 20 52  1  0
 21 53  1  0
 22 54  1  0
 23 55  1  0
 24 56  1  0
 25 57  1  0
 25 58  1  0
 27 59  1  0
 28 60  1  6
 29 61  1  0
 29 62  1  0
 30 63  1  0
 30 64  1  0
 33 65  1  0
 34 66  1  0
 35 67  1  0
 36 68  1  0
M  END
$$$$
