
     RDKit          3D

 68 69  0  0  0  0  0  0  0  0999 V2000
   -2.0496    1.0029    0.5091 O   0  0  0  0  0  0  0  0  0  0  0  0
   -1.0338    1.1837   -0.3536 C   0  0  0  0  0  0  0  0  0  0  0  0
   -0.4256   -0.1110   -0.8762 C   0  0  2  0  0  0  0  0  0  0  0  0
   -0.0130   -1.0585    0.2489 C   0  0  2  0  0  0  0  0  0  0  0  0
    1.1499   -0.4862    1.0552 C   0  0  0  0  0  0  0  0  0  0  0  0
    0.8177    0.5987    1.7843 O   0  0  0  0  0  0  0  0  0  0  0  0
   -0.7124    2.3058   -0.7165 O   0  0  0  0  0  0  0  0  0  0  0  0
    0.3564   -2.3229   -0.3261 O   0  0  0  0  0  0  0  0  0  0  0  0
    0.6929    0.1225   -1.7444 O   0  0  0  0  0  0  0  0  0  0  0  0
    2.2874   -0.9279    1.1062 O   0  0  0  0  0  0  0  0  0  0  0  0
    1.6278    0.2348    0.2892 N   0  0  0  0  0  0  0  0  0  0  0  0
    2.7919   -0.5915    0.5904 C   0  0  0  0  0  0  0  0  0  0  0  0
    4.0104    0.2221    0.4816 C   0  0  0  0  0  0  0  0  0  0  0  0
    5.0063    0.8881    0.3940 C   0  0  0  0  0  0  0  0  0  0  0  0
    0.3764   -0.4843    0.5042 C   0  0  2  0  0  0  0  0  0  0  0  0
    0.1382   -1.6076   -0.5299 C   0  0  0  0  0  0  0  0  0  0  0  0
   -1.3816   -1.7936   -0.6207 C   0  0  0  0  0  0  0  0  0  0  0  0
   -1.8558   -0.4001   -0.3511 C   0  0  0  0  0  0  0  0  0  0  0  0
   -0.8556    0.3569    0.2764 C   0  0  0  0  0  0  0  0  0  0  0  0
   -1.1028    1.6683    0.6572 C   0  0  0  0  0  0  0  0  0  0  0  0
   -3.1072    0.1333   -0.6128 C   0  0  0  0  0  0  0  0  0  0  0  0
   -3.3528    1.4571   -0.2452 C   0  0  0  0  0  0  0  0  0  0  0  0
   -2.3579    2.2193    0.3850 C   0  0  0  0  0  0  0  0  0  0  0  0
    1.2558   -0.6779   -1.1726 N   0  0  0  0  0  0  0  0  0  0  0  0
    2.6660   -1.0148   -0.9965 C   0  0  0  0  0  0  0  0  0  0  0  0
    3.5117    0.1832   -0.9040 C   0  0  0  0  0  0  0  0  0  0  0  0
    4.2032    1.1624   -0.8293 C   0  0  0  0  0  0  0  0  0  0  0  0
    0.6367   -0.0990    0.0172 C   0  0  2  0  0  0  0  0  0  0  0  0
    0.5134   -1.1024    1.1867 C   0  0  0  0  0  0  0  0  0  0  0  0
   -0.6831   -0.6413    2.0279 C   0  0  0  0  0  0  0  0  0  0  0  0
   -1.5575   -0.0392    0.9737 C   0  0  0  0  0  0  0  0  0  0  0  0
   -0.8171    0.2620   -0.1787 C   0  0  0  0  0  0  0  0  0  0  0  0
   -1.4267    0.8765   -1.2635 C   0  0  0  0  0  0  0  0  0  0  0  0
   -2.9081    0.2559    1.0619 C   0  0  0  0  0  0  0  0  0  0  0  0
   -3.5272    0.8572   -0.0349 C   0  0  0  0  0  0  0  0  0  0  0  0
   -2.7919    1.1657   -1.1892 C   0  0  0  0  0  0  0  0  0  0  0  0
   -2.3355    1.9109    0.7480 H   0  0  0  0  0  0  0  0  0  0  0  0
   -1.1870   -0.5915   -1.5018 H   0  0  0  0  0  0  0  0  0  0  0  0
   -0.8368   -1.2612    0.9409 H   0  0  0  0  0  0  0  0  0  0  0  0
    1.6535    0.8306    2.2448 H   0  0  0  0  0  0  0  0  0  0  0  0
    1.1434   -2.1357   -0.8767 H   0  0  0  0  0  0  0  0  0  0  0  0
    0.4923    0.9399   -2.2420 H   0  0  0  0  0  0  0  0  0  0  0  0
    1.6495    1.0483    0.9001 H   0  0  0  0  0  0  0  0  0  0  0  0
    2.7238   -1.0004    1.6052 H   0  0  0  0  0  0  0  0  0  0  0  0
    2.8615   -1.4317   -0.1089 H   0  0  0  0  0  0  0  0  0  0  0  0
    5.8864    1.4825    0.3091 H   0  0  0  0  0  0  0  0  0  0  0  0
    0.3209   -0.8854    1.5250 H   0  0  0  0  0  0  0  0  0  0  0  0
    0.6489   -2.5391   -0.2639 H   0  0  0  0  0  0  0  0  0  0  0  0
    0.5155   -1.3027   -1.5173 H   0  0  0  0  0  0  0  0  0  0  0  0
   -1.7461   -2.4738    0.1559 H   0  0  0  0  0  0  0  0  0  0  0  0
   -1.6811   -2.1550   -1.6083 H   0  0  0  0  0  0  0  0  0  0  0  0
   -0.3445    2.2631    1.1545 H   0  0  0  0  0  0  0  0  0  0  0  0
   -3.8799   -0.4585   -1.0926 H   0  0  0  0  0  0  0  0  0  0  0  0
   -4.3245    1.9017   -0.4452 H   0  0  0  0  0  0  0  0  0  0  0  0
   -2.5678    3.2480    0.6675 H   0  0  0  0  0  0  0  0  0  0  0  0
    1.1815   -0.0135   -1.9397 H   0  0  0  0  0  0  0  0  0  0  0  0
    2.9803   -1.5988   -1.8693 H   0  0  0  0  0  0  0  0  0  0  0  0
    2.8179   -1.6676   -0.1306 H   0  0  0  0  0  0  0  0  0  0  0  0
    4.8161    2.0317   -0.7627 H   0  0  0  0  0  0  0  0  0  0  0  0
    1.1578    0.8089    0.3468 H   0  0  0  0  0  0  0  0  0  0  0  0
    0.3054   -2.1120    0.8025 H   0  0  0  0  0  0  0  0  0  0  0  0
    1.4292   -1.1670    1.7835 H   0  0  0  0  0  0  0  0  0  0  0  0
   -0.3877    0.1218    2.7552 H   0  0  0  0  0  0  0  0  0  0  0  0
   -1.1597   -1.4828    2.5383 H   0  0  0  0  0  0  0  0  0  0  0  0
   -0.8645    1.1313   -2.1551 H   0  0  0  0  0  0  0  0  0  0  0  0
   -3.4745    0.0270    1.9587 H   0  0  0  0  0  0  0  0  0  0  0  0
   -4.5875    1.0938    0.0058 H   0  0  0  0  0  0  0  0  0  0  0  0
   -3.2895    1.6389   -2.0321 H   0  0  0  0  0  0  0  0  0  0  0  0
  1  2  1  0
  2  3  1  0
  3  4  1  0
  4  5  1  0
  5  6  1  0
  2  7  2  0
  4  8  1  0
  3  9  1  0
  5 10  2  0
 12 11  1  0
 15 11  1  0
 12 13  1  0
 13 14  3  0
 16 15  1  0
 19 15  1  0
 16 17  1  0
 17 18  1  0
 18 19  2  0
 18 21  1  0
 20 19  1  0
 23 20  2  0
 21 22  2  0
 22 23  1  0
 25 24  1  0
 28 24  1  0
 25 26  1  0
 26 27  3  0
 29 28  1  0
 32 28  1  0
 29 30  1  0
 30 31  1  0
 31 32  2  0
 31 34  1  0
 33 32  1  0
 36 33  2  0
 34 35  2  0
 35 36  1  0
  1 37  1  0
  3 38  1  6
  4 39  1  1
  6 40  1  0
  8 41  1  0
  9 42  1  0
 11 43  1  0
 12 44  1  0
 12 45  1  0
 14 46  1  0
 15 47  1  1
 16 48  1  0
 16 49  1  0
 17 50  1  0
 17 51  1  0
 20 52  1  0
 21 53  1  0
 22 54  1  0
 23 55  1  0
 24 56  1  0
 25 57  1  0
 25 58  1  0
 27 59  1  0
 28 60  1  1
 29 61  1  0
 29 62  1  0
 30 63  1  0
 30 64  1  0
 33 65  1  0
 34 66  1  0
 35 67  1  0
 36 68  1  0
M  END
$$$$
