
     RDKit          3D

 68 69  0  0  0  0  0  0  0  0999 V2000
    1.3884   -1.9267   -0.8115 O   0  0  0  0  0  0  0  0  0  0  0  0
    1.1909   -1.2325    0.3346 C   0  0  0  0  0  0  0  0  0  0  0  0
    0.9698    0.2544    0.0651 C   0  0  2  0  0  0  0  0  0  0  0  0
   -0.2880    0.7416    0.7857 C   0  0  2  0  0  0  0  0  0  0  0  0
   -1.5226    0.1296    0.1230 C   0  0  0  0  0  0  0  0  0  0  0  0
   -2.3476    1.0476   -0.4272 O   0  0  0  0  0  0  0  0  0  0  0  0
    1.2160   -1.7875    1.4193 O   0  0  0  0  0  0  0  0  0  0  0  0
   -0.3107    2.1755    0.7825 O   0  0  0  0  0  0  0  0  0  0  0  0
    0.9081    0.5876   -1.3296 O   0  0  0  0  0  0  0  0  0  0  0  0
   -1.7772   -1.0619    0.0350 O   0  0  0  0  0  0  0  0  0  0  0  0
    1.2016   -0.2000    1.1579 N   0  0  0  0  0  0  0  0  0  0  0  0
    1.7657   -1.2765    1.9600 C   0  0  0  0  0  0  0  0  0  0  0  0
    3.0675   -0.8585    2.4958 C   0  0  0  0  0  0  0  0  0  0  0  0
    4.1322   -0.5171    2.9349 C   0  0  0  0  0  0  0  0  0  0  0  0
   -0.0760   -0.5690    0.5612 C   0  0  2  0  0  0  0  0  0  0  0  0
    0.0441   -1.5774   -0.6054 C   0  0  0  0  0  0  0  0  0  0  0  0
   -1.1653   -1.3262   -1.5173 C   0  0  0  0  0  0  0  0  0  0  0  0
   -1.3700    0.1428   -1.3221 C   0  0  0  0  0  0  0  0  0  0  0  0
   -0.7442    0.5812   -0.1476 C   0  0  0  0  0  0  0  0  0  0  0  0
   -0.8430    1.9045    0.2555 C   0  0  0  0  0  0  0  0  0  0  0  0
   -2.1013    1.0130   -2.1129 C   0  0  0  0  0  0  0  0  0  0  0  0
   -2.1917    2.3496   -1.7180 C   0  0  0  0  0  0  0  0  0  0  0  0
   -1.5667    2.7933   -0.5421 C   0  0  0  0  0  0  0  0  0  0  0  0
    1.7662   -0.3064   -0.2389 N   0  0  0  0  0  0  0  0  0  0  0  0
    2.5436   -0.0236    0.9591 C   0  0  0  0  0  0  0  0  0  0  0  0
    3.7721    0.6908    0.5888 C   0  0  0  0  0  0  0  0  0  0  0  0
    4.7725    1.2820    0.2846 C   0  0  0  0  0  0  0  0  0  0  0  0
    0.4690   -0.8985    0.0570 C   0  0  2  0  0  0  0  0  0  0  0  0
    0.0060   -1.7463   -1.1495 C   0  0  0  0  0  0  0  0  0  0  0  0
   -1.5232   -1.8080   -1.0620 C   0  0  0  0  0  0  0  0  0  0  0  0
   -1.8222   -0.4673   -0.4655 C   0  0  0  0  0  0  0  0  0  0  0  0
   -0.6870    0.0658    0.1666 C   0  0  0  0  0  0  0  0  0  0  0  0
   -0.7623    1.2895    0.8159 C   0  0  0  0  0  0  0  0  0  0  0  0
   -3.0359    0.2008   -0.4608 C   0  0  0  0  0  0  0  0  0  0  0  0
   -3.1075    1.4368    0.1814 C   0  0  0  0  0  0  0  0  0  0  0  0
   -1.9785    1.9770    0.8144 C   0  0  0  0  0  0  0  0  0  0  0  0
    1.4913   -2.8578   -0.5096 H   0  0  0  0  0  0  0  0  0  0  0  0
    1.8506    0.7810    0.4532 H   0  0  0  0  0  0  0  0  0  0  0  0
   -0.2982    0.4357    1.8372 H   0  0  0  0  0  0  0  0  0  0  0  0
   -3.0817    0.5262   -0.8147 H   0  0  0  0  0  0  0  0  0  0  0  0
   -0.5408    2.4218   -0.1358 H   0  0  0  0  0  0  0  0  0  0  0  0
    1.1516   -0.2345   -1.8071 H   0  0  0  0  0  0  0  0  0  0  0  0
    1.8580    0.0571    0.4232 H   0  0  0  0  0  0  0  0  0  0  0  0
    1.8985   -2.1866    1.3676 H   0  0  0  0  0  0  0  0  0  0  0  0
    1.0950   -1.5122    2.7927 H   0  0  0  0  0  0  0  0  0  0  0  0
    5.0763   -0.2073    3.3165 H   0  0  0  0  0  0  0  0  0  0  0  0
   -0.7745   -0.9416    1.3218 H   0  0  0  0  0  0  0  0  0  0  0  0
    0.0885   -2.6155   -0.2601 H   0  0  0  0  0  0  0  0  0  0  0  0
    0.9628   -1.3912   -1.1806 H   0  0  0  0  0  0  0  0  0  0  0  0
   -2.0451   -1.8793   -1.1732 H   0  0  0  0  0  0  0  0  0  0  0  0
   -0.9412   -1.5843   -2.5557 H   0  0  0  0  0  0  0  0  0  0  0  0
   -0.3677    2.2407    1.1721 H   0  0  0  0  0  0  0  0  0  0  0  0
   -2.5951    0.6700   -3.0159 H   0  0  0  0  0  0  0  0  0  0  0  0
   -2.7566    3.0545   -2.3225 H   0  0  0  0  0  0  0  0  0  0  0  0
   -1.6516    3.8360   -0.2470 H   0  0  0  0  0  0  0  0  0  0  0  0
    1.6353    0.5462   -0.7827 H   0  0  0  0  0  0  0  0  0  0  0  0
    2.8076   -0.9621    1.4615 H   0  0  0  0  0  0  0  0  0  0  0  0
    1.9822    0.5828    1.6765 H   0  0  0  0  0  0  0  0  0  0  0  0
    5.6620    1.8006    0.0088 H   0  0  0  0  0  0  0  0  0  0  0  0
    0.4983   -1.5400    0.9485 H   0  0  0  0  0  0  0  0  0  0  0  0
    0.4607   -2.7433   -1.1583 H   0  0  0  0  0  0  0  0  0  0  0  0
    0.2833   -1.2592   -2.0966 H   0  0  0  0  0  0  0  0  0  0  0  0
   -1.8533   -2.6041   -0.3866 H   0  0  0  0  0  0  0  0  0  0  0  0
   -1.9750   -1.9374   -2.0486 H   0  0  0  0  0  0  0  0  0  0  0  0
    0.0944    1.7205    1.3206 H   0  0  0  0  0  0  0  0  0  0  0  0
   -3.9108   -0.2215   -0.9444 H   0  0  0  0  0  0  0  0  0  0  0  0
   -4.0460    1.9856    0.1957 H   0  0  0  0  0  0  0  0  0  0  0  0
   -2.0514    2.9396    1.3146 H   0  0  0  0  0  0  0  0  0  0  0  0
  1  2  1  0
  2  3  1  0
  3  4  1  0
  4  5  1  0
  5  6  1  0
  2  7  2  0
  4  8  1  0
  3  9  1  0
  5 10  2  0
 12 11  1  0
 15 11  1  0
 12 13  1  0
 13 14  3  0
 16 15  1  0
 19 15  1  0
 16 17  1  0
 17 18  1  0
 18 19  2  0
 18 21  1  0
 20 19  1  0
 23 20  2  0
 21 22  2  0
 22 23  1  0
 25 24  1  0
 28 24  1  0
 25 26  1  0
 26 27  3  0
 29 28  1  0
 32 28  1  0
 29 30  1  0
 30 31  1  0
 31 32  2  0
 31 34  1  0
 33 32  1  0
 36 33  2  0
 34 35  2  0
 35 36  1  0
  1 37  1  0
  3 38  1  1
  4 39  1  1
  6 40  1  0
  8 41  1  0
  9 42  1  0
 11 43  1  0
 12 44  1  0
 12 45  1  0
 14 46  1  0
 15 47  1  1
 16 48  1  0
 16 49  1  0
 17 50  1  0
 17 51  1  0
 20 52  1  0
 21 53  1  0
 22 54  1  0
 23 55  1  0
 24 56  1  0
 25 57  1  0
 25 58  1  0
 27 59  1  0
 28 60  1  1
 29 61  1  0
 29 62  1  0
 30 63  1  0
 30 64  1  0
 33 65  1  0
 34 66  1  0
 35 67  1  0
 36 68  1  0
M  END
$$$$
