
     RDKit          3D

 68 69  0  0  0  0  0  0  0  0999 V2000
    2.1072    1.1522   -0.5024 O   0  0  0  0  0  0  0  0  0  0  0  0
    1.6487    0.1296    0.2403 C   0  0  0  0  0  0  0  0  0  0  0  0
    0.6110   -0.7338   -0.4657 C   0  0  2  0  0  0  0  0  0  0  0  0
   -0.5153    0.0961   -1.0800 C   0  0  2  0  0  0  0  0  0  0  0  0
   -1.2386    0.8832    0.0118 C   0  0  0  0  0  0  0  0  0  0  0  0
   -2.4740    0.4109    0.2857 O   0  0  0  0  0  0  0  0  0  0  0  0
    2.1033   -0.0942    1.3526 O   0  0  0  0  0  0  0  0  0  0  0  0
   -1.3970   -0.7676   -1.8103 O   0  0  0  0  0  0  0  0  0  0  0  0
    0.0539   -1.7234    0.4145 O   0  0  0  0  0  0  0  0  0  0  0  0
   -0.7905    1.8358    0.6308 O   0  0  0  0  0  0  0  0  0  0  0  0
    1.7073    0.0134   -0.5100 N   0  0  0  0  0  0  0  0  0  0  0  0
    2.6162    0.6403    0.4386 C   0  0  0  0  0  0  0  0  0  0  0  0
    3.5942    1.4597   -0.2894 C   0  0  0  0  0  0  0  0  0  0  0  0
    4.3928    2.1308   -0.8852 C   0  0  0  0  0  0  0  0  0  0  0  0
    0.6539   -0.7507    0.1450 C   0  0  2  0  0  0  0  0  0  0  0  0
    0.1876   -1.8888   -0.7905 C   0  0  0  0  0  0  0  0  0  0  0  0
   -1.2454   -2.2268   -0.3648 C   0  0  0  0  0  0  0  0  0  0  0  0
   -1.7300   -0.8798    0.0746 C   0  0  0  0  0  0  0  0  0  0  0  0
   -0.6523   -0.0249    0.3556 C   0  0  0  0  0  0  0  0  0  0  0  0
   -0.8865    1.2645    0.8106 C   0  0  0  0  0  0  0  0  0  0  0  0
   -3.0430   -0.4704    0.2418 C   0  0  0  0  0  0  0  0  0  0  0  0
   -3.2785    0.8301    0.6878 C   0  0  0  0  0  0  0  0  0  0  0  0
   -2.2082    1.6915    0.9693 C   0  0  0  0  0  0  0  0  0  0  0  0
    1.0378   -1.5352    0.0258 N   0  0  0  0  0  0  0  0  0  0  0  0
    2.3499   -1.8594   -0.5195 C   0  0  0  0  0  0  0  0  0  0  0  0
    3.4272   -1.0938    0.1203 C   0  0  0  0  0  0  0  0  0  0  0  0
    4.3137   -0.4763    0.6457 C   0  0  0  0  0  0  0  0  0  0  0  0
    0.4299   -0.3448   -0.5568 C   0  0  2  0  0  0  0  0  0  0  0  0
    1.0129    0.9977   -0.0607 C   0  0  0  0  0  0  0  0  0  0  0  0
   -0.1126    2.0335   -0.1941 C   0  0  0  0  0  0  0  0  0  0  0  0
   -1.3153    1.1792    0.0532 C   0  0  0  0  0  0  0  0  0  0  0  0
   -1.0122   -0.1747   -0.1433 C   0  0  0  0  0  0  0  0  0  0  0  0
   -1.9950   -1.1449   -0.0128 C   0  0  0  0  0  0  0  0  0  0  0  0
   -2.5961    1.5879    0.3859 C   0  0  0  0  0  0  0  0  0  0  0  0
   -3.5848    0.6129    0.5338 C   0  0  0  0  0  0  0  0  0  0  0  0
   -3.2867   -0.7442    0.3358 C   0  0  0  0  0  0  0  0  0  0  0  0
    2.7346    1.6247    0.0869 H   0  0  0  0  0  0  0  0  0  0  0  0
    1.1305   -1.2938   -1.2517 H   0  0  0  0  0  0  0  0  0  0  0  0
   -0.1325    0.8254   -1.8016 H   0  0  0  0  0  0  0  0  0  0  0  0
   -2.8086    0.9954    0.9974 H   0  0  0  0  0  0  0  0  0  0  0  0
   -1.8133   -1.3322   -1.1274 H   0  0  0  0  0  0  0  0  0  0  0  0
    0.7806   -2.0084    1.0039 H   0  0  0  0  0  0  0  0  0  0  0  0
    1.2893    0.7210   -1.1122 H   0  0  0  0  0  0  0  0  0  0  0  0
    3.1489   -0.1292    1.0093 H   0  0  0  0  0  0  0  0  0  0  0  0
    2.0826    1.2723    1.1549 H   0  0  0  0  0  0  0  0  0  0  0  0
    5.1012    2.7204   -1.4198 H   0  0  0  0  0  0  0  0  0  0  0  0
    0.9855   -1.1882    1.0960 H   0  0  0  0  0  0  0  0  0  0  0  0
    0.8491   -2.7609   -0.7472 H   0  0  0  0  0  0  0  0  0  0  0  0
    0.1723   -1.5486   -1.8369 H   0  0  0  0  0  0  0  0  0  0  0  0
   -1.2583   -2.9269    0.4767 H   0  0  0  0  0  0  0  0  0  0  0  0
   -1.8256   -2.6298   -1.1996 H   0  0  0  0  0  0  0  0  0  0  0  0
   -0.0731    1.9419    1.0439 H   0  0  0  0  0  0  0  0  0  0  0  0
   -3.8705   -1.1401    0.0307 H   0  0  0  0  0  0  0  0  0  0  0  0
   -4.2995    1.1786    0.8225 H   0  0  0  0  0  0  0  0  0  0  0  0
   -2.4101    2.7007    1.3204 H   0  0  0  0  0  0  0  0  0  0  0  0
    1.0972   -1.4357    1.0375 H   0  0  0  0  0  0  0  0  0  0  0  0
    2.5302   -2.9252   -0.3369 H   0  0  0  0  0  0  0  0  0  0  0  0
    2.3716   -1.7324   -1.6079 H   0  0  0  0  0  0  0  0  0  0  0  0
    5.0997    0.0707    1.1133 H   0  0  0  0  0  0  0  0  0  0  0  0
    0.4495   -0.3889   -1.6537 H   0  0  0  0  0  0  0  0  0  0  0  0
    1.2955    0.9250    0.9996 H   0  0  0  0  0  0  0  0  0  0  0  0
    1.9067    1.2987   -0.6166 H   0  0  0  0  0  0  0  0  0  0  0  0
   -0.0073    2.8338    0.5436 H   0  0  0  0  0  0  0  0  0  0  0  0
   -0.1486    2.4543   -1.2042 H   0  0  0  0  0  0  0  0  0  0  0  0
   -1.7649   -2.1929   -0.1787 H   0  0  0  0  0  0  0  0  0  0  0  0
   -2.8310    2.6377    0.5279 H   0  0  0  0  0  0  0  0  0  0  0  0
   -4.5974    0.9068    0.7988 H   0  0  0  0  0  0  0  0  0  0  0  0
   -4.0698   -1.4897    0.4486 H   0  0  0  0  0  0  0  0  0  0  0  0
  1  2  1  0
  2  3  1  0
  3  4  1  0
  4  5  1  0
  5  6  1  0
  2  7  2  0
  4  8  1  0
  3  9  1  0
  5 10  2  0
 12 11  1  0
 15 11  1  0
 12 13  1  0
 13 14  3  0
 16 15  1  0
 19 15  1  0
 16 17  1  0
 17 18  1  0
 18 19  2  0
 18 21  1  0
 20 19  1  0
 23 20  2  0
 21 22  2  0
 22 23  1  0
 25 24  1  0
 28 24  1  0
 25 26  1  0
 26 27  3  0
 29 28  1  0
 32 28  1  0
 29 30  1  0
 30 31  1  0
 31 32  2  0
 31 34  1  0
 33 32  1  0
 36 33  2  0
 34 35  2  0
 35 36  1  0
  1 37  1  0
  3 38  1  6
  4 39  1  6
  6 40  1  0
  8 41  1  0
  9 42  1  0
 11 43  1  0
 12 44  1  0
 12 45  1  0
 14 46  1  0
 15 47  1  1
 16 48  1  0
 16 49  1  0
 17 50  1  0
 17 51  1  0
 20 52  1  0
 21 53  1  0
 22 54  1  0
 23 55  1  0
 24 56  1  0
 25 57  1  0
 25 58  1  0
 27 59  1  0
 28 60  1  6
 29 61  1  0
 29 62  1  0
 30 63  1  0
 30 64  1  0
 33 65  1  0
 34 66  1  0
 35 67  1  0
 36 68  1  0
M  END
$$$$
