
     RDKit          3D

 68 69  0  0  0  0  0  0  0  0999 V2000
   -0.6697    1.3563    1.2740 O   0  0  0  0  0  0  0  0  0  0  0  0
   -1.3396    0.3131    0.7590 C   0  0  0  0  0  0  0  0  0  0  0  0
   -0.4671   -0.8467    0.2908 C   0  0  2  0  0  0  0  0  0  0  0  0
    0.6063   -0.4099   -0.7064 C   0  0  2  0  0  0  0  0  0  0  0  0
    1.6986    0.3856    0.0081 C   0  0  0  0  0  0  0  0  0  0  0  0
    2.1279    1.4667   -0.6716 O   0  0  0  0  0  0  0  0  0  0  0  0
   -2.5637    0.3029    0.7553 O   0  0  0  0  0  0  0  0  0  0  0  0
   -0.0038    0.1964   -1.8455 O   0  0  0  0  0  0  0  0  0  0  0  0
   -1.3008   -1.8232   -0.3718 O   0  0  0  0  0  0  0  0  0  0  0  0
    2.2049    0.0928    1.0819 O   0  0  0  0  0  0  0  0  0  0  0  0
    1.1191    0.4515   -1.3932 N   0  0  0  0  0  0  0  0  0  0  0  0
    2.5314    0.1694   -1.6309 C   0  0  0  0  0  0  0  0  0  0  0  0
    3.4097    0.9993   -0.7968 C   0  0  0  0  0  0  0  0  0  0  0  0
    4.1297    1.6782   -0.1158 C   0  0  0  0  0  0  0  0  0  0  0  0
    0.6509    0.0380   -0.0719 C   0  0  2  0  0  0  0  0  0  0  0  0
    0.6735   -1.4912    0.1591 C   0  0  0  0  0  0  0  0  0  0  0  0
   -0.4283   -1.7894    1.1855 C   0  0  0  0  0  0  0  0  0  0  0  0
   -1.4244   -0.7246    0.8503 C   0  0  0  0  0  0  0  0  0  0  0  0
   -0.8186    0.3151    0.1321 C   0  0  0  0  0  0  0  0  0  0  0  0
   -1.5462    1.4357   -0.2403 C   0  0  0  0  0  0  0  0  0  0  0  0
   -2.7625   -0.6686    1.2029 C   0  0  0  0  0  0  0  0  0  0  0  0
   -3.5033    0.4500    0.8150 C   0  0  0  0  0  0  0  0  0  0  0  0
   -2.8995    1.4953    0.0989 C   0  0  0  0  0  0  0  0  0  0  0  0
    1.6304    0.2878    0.1655 N   0  0  0  0  0  0  0  0  0  0  0  0
    2.8385   -0.4775    0.4546 C   0  0  0  0  0  0  0  0  0  0  0  0
    4.0200    0.3473    0.1679 C   0  0  0  0  0  0  0  0  0  0  0  0
    4.9854    1.0226   -0.0663 C   0  0  0  0  0  0  0  0  0  0  0  0
    0.4209   -0.4329    0.5495 C   0  0  2  0  0  0  0  0  0  0  0  0
    0.1369   -1.6596   -0.3463 C   0  0  0  0  0  0  0  0  0  0  0  0
   -1.3793   -1.8862   -0.2981 C   0  0  0  0  0  0  0  0  0  0  0  0
   -1.8720   -0.4832   -0.1304 C   0  0  0  0  0  0  0  0  0  0  0  0
   -0.8493    0.3543    0.3386 C   0  0  0  0  0  0  0  0  0  0  0  0
   -1.1052    1.6915    0.6074 C   0  0  0  0  0  0  0  0  0  0  0  0
   -3.1550   -0.0060   -0.3434 C   0  0  0  0  0  0  0  0  0  0  0  0
   -3.4104    1.3424   -0.0896 C   0  0  0  0  0  0  0  0  0  0  0  0
   -2.3930    2.1852    0.3823 C   0  0  0  0  0  0  0  0  0  0  0  0
   -1.3659    1.9985    1.5298 H   0  0  0  0  0  0  0  0  0  0  0  0
   -0.0412   -1.3317    1.1754 H   0  0  0  0  0  0  0  0  0  0  0  0
    1.1137   -1.3012   -1.0976 H   0  0  0  0  0  0  0  0  0  0  0  0
    2.8124    1.8670   -0.0988 H   0  0  0  0  0  0  0  0  0  0  0  0
   -0.6503   -0.4569   -2.1768 H   0  0  0  0  0  0  0  0  0  0  0  0
   -2.1617   -1.8096    0.0942 H   0  0  0  0  0  0  0  0  0  0  0  0
    0.5641   -0.0330   -2.0962 H   0  0  0  0  0  0  0  0  0  0  0  0
    2.7451    0.3932   -2.6828 H   0  0  0  0  0  0  0  0  0  0  0  0
    2.7564   -0.8940   -1.4952 H   0  0  0  0  0  0  0  0  0  0  0  0
    4.7607    2.2883    0.4882 H   0  0  0  0  0  0  0  0  0  0  0  0
    1.1942    0.5543    0.7293 H   0  0  0  0  0  0  0  0  0  0  0  0
    1.6526   -1.8497    0.4937 H   0  0  0  0  0  0  0  0  0  0  0  0
    0.4368   -2.0228   -0.7743 H   0  0  0  0  0  0  0  0  0  0  0  0
   -0.0642   -1.6581    2.2096 H   0  0  0  0  0  0  0  0  0  0  0  0
   -0.8320   -2.7973    1.0558 H   0  0  0  0  0  0  0  0  0  0  0  0
   -1.0720    2.2495   -0.7809 H   0  0  0  0  0  0  0  0  0  0  0  0
   -3.2281   -1.4691    1.7685 H   0  0  0  0  0  0  0  0  0  0  0  0
   -4.5564    0.5171    1.0765 H   0  0  0  0  0  0  0  0  0  0  0  0
   -3.4886    2.3630   -0.1874 H   0  0  0  0  0  0  0  0  0  0  0  0
    1.6743    1.1594    0.6887 H   0  0  0  0  0  0  0  0  0  0  0  0
    2.8794   -1.3831   -0.1601 H   0  0  0  0  0  0  0  0  0  0  0  0
    2.8610   -0.7819    1.5076 H   0  0  0  0  0  0  0  0  0  0  0  0
    5.8378    1.6245   -0.2820 H   0  0  0  0  0  0  0  0  0  0  0  0
    0.4562   -0.7301    1.6061 H   0  0  0  0  0  0  0  0  0  0  0  0
    0.4285   -1.4480   -1.3858 H   0  0  0  0  0  0  0  0  0  0  0  0
    0.6932   -2.5485   -0.0306 H   0  0  0  0  0  0  0  0  0  0  0  0
   -1.6637   -2.4925    0.5679 H   0  0  0  0  0  0  0  0  0  0  0  0
   -1.7428   -2.3511   -1.2187 H   0  0  0  0  0  0  0  0  0  0  0  0
   -0.3291    2.3494    0.9831 H   0  0  0  0  0  0  0  0  0  0  0  0
   -3.9445   -0.6596   -0.6998 H   0  0  0  0  0  0  0  0  0  0  0  0
   -4.4072    1.7437   -0.2551 H   0  0  0  0  0  0  0  0  0  0  0  0
   -2.6108    3.2322    0.5784 H   0  0  0  0  0  0  0  0  0  0  0  0
  1  2  1  0
  2  3  1  0
  3  4  1  0
  4  5  1  0
  5  6  1  0
  2  7  2  0
  4  8  1  0
  3  9  1  0
  5 10  2  0
 12 11  1  0
 15 11  1  0
 12 13  1  0
 13 14  3  0
 16 15  1  0
 19 15  1  0
 16 17  1  0
 17 18  1  0
 18 19  2  0
 18 21  1  0
 20 19  1  0
 23 20  2  0
 21 22  2  0
 22 23  1  0
 25 24  1  0
 28 24  1  0
 25 26  1  0
 26 27  3  0
 29 28  1  0
 32 28  1  0
 29 30  1  0
 30 31  1  0
 31 32  2  0
 31 34  1  0
 33 32  1  0
 36 33  2  0
 34 35  2  0
 35 36  1  0
  1 37  1  0
  3 38  1  1
  4 39  1  6
  6 40  1  0
  8 41  1  0
  9 42  1  0
 11 43  1  0
 12 44  1  0
 12 45  1  0
 14 46  1  0
 15 47  1  1
 16 48  1  0
 16 49  1  0
 17 50  1  0
 17 51  1  0
 20 52  1  0
 21 53  1  0
 22 54  1  0
 23 55  1  0
 24 56  1  0
 25 57  1  0
 25 58  1  0
 27 59  1  0
 28 60  1  1
 29 61  1  0
 29 62  1  0
 30 63  1  0
 30 64  1  0
 33 65  1  0
 34 66  1  0
 35 67  1  0
 36 68  1  0
M  END
$$$$
