
     RDKit          3D

 61 65  0  0  0  0  0  0  0  0999 V2000
    5.9954    1.1268    0.4444 C   0  0  0  0  0  0  0  0  0  0  0  0
    7.1228    0.3229    0.5415 C   0  0  0  0  0  0  0  0  0  0  0  0
    7.2884   -0.8217   -0.2472 C   0  0  0  0  0  0  0  0  0  0  0  0
    6.2796   -1.1869   -1.1520 C   0  0  0  0  0  0  0  0  0  0  0  0
    5.1471   -0.3794   -1.2733 C   0  0  0  0  0  0  0  0  0  0  0  0
    4.9924    0.7790   -0.4788 C   0  0  0  0  0  0  0  0  0  0  0  0
    3.8675    1.6254   -0.5485 C   0  0  0  0  0  0  0  0  0  0  0  0
    3.7851    2.7617    0.2514 C   0  0  0  0  0  0  0  0  0  0  0  0
    4.8217    3.0032    1.1247 C   0  0  0  0  0  0  0  0  0  0  0  0
    5.9092    2.2116    1.2345 N   0  0  0  0  0  0  0  0  0  0  0  0
    8.3816   -1.6515   -0.1895 O   0  0  0  0  0  0  0  0  0  0  0  0
    6.4973   -2.3253   -1.8861 O   0  0  0  0  0  0  0  0  0  0  0  0
    2.8887    1.3461   -1.4838 O   0  0  0  0  0  0  0  0  0  0  0  0
    1.5895    1.3578   -1.0352 C   0  0  0  0  0  0  0  0  0  0  0  0
    1.1606    0.5304    0.0020 C   0  0  0  0  0  0  0  0  0  0  0  0
    0.6830    2.1807   -1.6976 C   0  0  0  0  0  0  0  0  0  0  0  0
   -0.6525    2.2117   -1.2866 C   0  0  0  0  0  0  0  0  0  0  0  0
   -1.0940    1.4005   -0.2320 C   0  0  0  0  0  0  0  0  0  0  0  0
   -0.1801    0.5559    0.4039 C   0  0  0  0  0  0  0  0  0  0  0  0
   -2.4484    1.5082    0.1376 N   0  0  0  0  0  0  0  0  0  0  0  0
   -3.1250    0.7503    1.0657 C   0  0  0  0  0  0  0  0  0  0  0  0
   -2.7285   -0.2356    1.6704 O   0  0  0  0  0  0  0  0  0  0  0  0
   -4.5307    1.2101    1.3057 C   0  0  0  0  0  0  0  0  0  0  0  0
   -4.9196    1.5544    2.7470 C   0  0  0  0  0  0  0  0  0  0  0  0
   -4.7553    2.6571    1.7507 C   0  0  0  0  0  0  0  0  0  0  0  0
   -5.5832    0.5557    0.4614 C   0  0  0  0  0  0  0  0  0  0  0  0
   -5.8363   -0.7482    0.8295 N   0  0  0  0  0  0  0  0  0  0  0  0
   -6.0969    1.1976   -0.4425 O   0  0  0  0  0  0  0  0  0  0  0  0
   -6.8067   -1.6163    0.2946 C   0  0  0  0  0  0  0  0  0  0  0  0
   -8.7190   -2.1401   -1.1044 C   0  0  0  0  0  0  0  0  0  0  0  0
   -7.7771   -1.2211   -0.6311 C   0  0  0  0  0  0  0  0  0  0  0  0
   -6.7951   -2.9448    0.7458 C   0  0  0  0  0  0  0  0  0  0  0  0
   -7.7355   -3.8626    0.2720 C   0  0  0  0  0  0  0  0  0  0  0  0
   -8.6901   -3.4514   -0.6480 C   0  0  0  0  0  0  0  0  0  0  0  0
   -9.5954   -4.3288   -1.0996 F   0  0  0  0  0  0  0  0  0  0  0  0
    9.4949   -1.2153    0.5800 C   0  0  0  0  0  0  0  0  0  0  0  0
    5.3676   -2.9140   -2.5160 C   0  0  0  0  0  0  0  0  0  0  0  0
    7.8743    0.6197    1.2662 H   0  0  0  0  0  0  0  0  0  0  0  0
    4.3692   -0.6258   -1.9879 H   0  0  0  0  0  0  0  0  0  0  0  0
    2.9468    3.4442    0.1952 H   0  0  0  0  0  0  0  0  0  0  0  0
    4.8139    3.8709    1.7784 H   0  0  0  0  0  0  0  0  0  0  0  0
    1.8565   -0.1398    0.5018 H   0  0  0  0  0  0  0  0  0  0  0  0
    1.0139    2.8018   -2.5254 H   0  0  0  0  0  0  0  0  0  0  0  0
   -1.3418    2.8711   -1.8093 H   0  0  0  0  0  0  0  0  0  0  0  0
   -0.4751   -0.0919    1.2248 H   0  0  0  0  0  0  0  0  0  0  0  0
   -2.9955    2.2073   -0.3526 H   0  0  0  0  0  0  0  0  0  0  0  0
   -4.1658    1.4441    3.5196 H   0  0  0  0  0  0  0  0  0  0  0  0
   -5.9249    1.3215    3.0826 H   0  0  0  0  0  0  0  0  0  0  0  0
   -5.6481    3.1650    1.4006 H   0  0  0  0  0  0  0  0  0  0  0  0
   -3.8986    3.3123    1.8654 H   0  0  0  0  0  0  0  0  0  0  0  0
   -5.2077   -1.1434    1.5246 H   0  0  0  0  0  0  0  0  0  0  0  0
   -9.4744   -1.8354   -1.8215 H   0  0  0  0  0  0  0  0  0  0  0  0
   -7.8356   -0.2007   -0.9977 H   0  0  0  0  0  0  0  0  0  0  0  0
   -6.0517   -3.2833    1.4638 H   0  0  0  0  0  0  0  0  0  0  0  0
   -7.7291   -4.8916    0.6162 H   0  0  0  0  0  0  0  0  0  0  0  0
    9.8481   -0.2319    0.2490 H   0  0  0  0  0  0  0  0  0  0  0  0
    9.2542   -1.2122    1.6485 H   0  0  0  0  0  0  0  0  0  0  0  0
   10.3104   -1.9290    0.4250 H   0  0  0  0  0  0  0  0  0  0  0  0
    4.5338   -3.0341   -1.8170 H   0  0  0  0  0  0  0  0  0  0  0  0
    5.0659   -2.3316   -3.3925 H   0  0  0  0  0  0  0  0  0  0  0  0
    5.6582   -3.9111   -2.8599 H   0  0  0  0  0  0  0  0  0  0  0  0
  1  2  2  0
  1  6  1  0
  1 10  1  0
  2  3  1  0
  3  4  2  0
  4  5  1  0
  5  6  2  0
  6  7  1  0
  7  8  2  0
  8  9  1  0
  9 10  2  0
  3 11  1  0
  4 12  1  0
  7 13  1  0
 13 14  1  0
 15 14  2  0
 14 16  1  0
 15 19  1  0
 16 17  2  0
 17 18  1  0
 18 19  2  0
 18 20  1  0
 20 21  1  0
 21 22  2  0
 21 23  1  0
 23 24  1  0
 24 25  1  0
 25 23  1  0
 23 26  1  0
 26 27  1  0
 26 28  2  0
 27 29  1  0
 31 29  1  0
 29 32  2  0
 30 31  2  0
 30 34  1  0
 32 33  1  0
 33 34  2  0
 34 35  1  0
 11 36  1  0
 12 37  1  0
  2 38  1  0
  5 39  1  0
  8 40  1  0
  9 41  1  0
 15 42  1  0
 16 43  1  0
 17 44  1  0
 19 45  1  0
 20 46  1  0
 24 47  1  0
 24 48  1  0
 25 49  1  0
 25 50  1  0
 27 51  1  0
 30 52  1  0
 31 53  1  0
 32 54  1  0
 33 55  1  0
 36 56  1  0
 36 57  1  0
 36 58  1  0
 37 59  1  0
 37 60  1  0
 37 61  1  0
M  END
$$$$
