
     RDKit          3D

 84 86  0  0  0  0  0  0  0  0999 V2000
    2.8137   -0.4622    1.4725 N   0  0  0  0  0  0  0  0  0  0  0  0
    1.4418   -0.4615    1.9166 C   0  0  0  0  0  0  0  0  0  0  0  0
    3.6956   -1.6189    1.5955 C   0  0  1  0  0  0  0  0  0  0  0  0
   -1.1899    0.2973    1.4559 P   0  0  1  0  0  0  0  0  0  0  0  0
    0.5585    0.7451    1.7201 C   0  0  0  0  0  0  0  0  0  0  0  0
    3.4751    0.6867    0.8704 C   0  0  0  0  0  0  0  0  0  0  0  0
   -1.3314   -0.6839    0.0553 O   0  0  0  0  0  0  0  0  0  0  0  0
   -1.5605   -2.0400    0.3886 C   0  0  2  0  0  0  0  0  0  0  0  0
    4.9871   -1.2307    0.8651 C   0  0  0  0  0  0  0  0  0  0  0  0
    3.9573   -1.9334    3.0439 C   0  0  0  0  0  0  0  0  0  0  0  0
    4.9549    0.3034    0.7778 C   0  0  1  0  0  0  0  0  0  0  0  0
   -0.9789   -2.8400   -0.6442 O   0  0  0  0  0  0  0  0  0  0  0  0
   -0.3635   -4.0804   -0.4336 C   0  0  0  0  0  0  0  0  0  0  0  0
   -1.7438   -0.3704    2.6977 O   0  0  0  0  0  0  0  0  0  0  0  0
    1.0059   -1.4476    2.5702 O   0  0  0  0  0  0  0  0  0  0  0  0
    3.6731   -3.1996    3.5395 O   0  0  0  0  0  0  0  0  0  0  0  0
    4.4200   -1.0522    3.8183 O   0  0  0  0  0  0  0  0  0  0  0  0
   -0.2271   -4.5531    0.7300 O   0  0  0  0  0  0  0  0  0  0  0  0
    5.6881    0.9298   -0.4438 C   0  0  0  0  0  0  0  0  0  0  0  0
   -3.0864   -2.3093    0.4723 C   0  0  0  0  0  0  0  0  0  0  0  0
   -2.1136    1.8372    1.1604 C   0  0  0  0  0  0  0  0  0  0  0  0
   -6.6312    3.8060    0.2173 C   0  0  0  0  0  0  0  0  0  0  0  0
    0.1045   -4.8710   -1.6135 C   0  0  0  0  0  0  0  0  0  0  0  0
    5.2013    0.4123   -1.8341 C   0  0  0  0  0  0  0  0  0  0  0  0
    7.2220    0.8240   -0.2732 C   0  0  0  0  0  0  0  0  0  0  0  0
   -3.7669   -2.1737   -0.8980 C   0  0  0  0  0  0  0  0  0  0  0  0
   -3.3886   -3.6839    1.0844 C   0  0  0  0  0  0  0  0  0  0  0  0
   -5.8559    2.5296    0.3963 C   0  0  0  0  0  0  0  0  0  0  0  0
   -6.7360    4.4012   -1.0512 C   0  0  0  0  0  0  0  0  0  0  0  0
   -7.2022    4.4495    1.3307 C   0  0  0  0  0  0  0  0  0  0  0  0
   -3.5949    1.5385    0.9213 C   0  0  0  0  0  0  0  0  0  0  0  0
   -4.3768    2.8281    0.6572 C   0  0  0  0  0  0  0  0  0  0  0  0
   -0.9317   -5.9199   -2.0052 C   0  0  0  0  0  0  0  0  0  0  0  0
    6.2541   -0.4364   -2.5615 C   0  0  0  0  0  0  0  0  0  0  0  0
    7.9414    1.2368   -1.5616 C   0  0  0  0  0  0  0  0  0  0  0  0
   -7.4249    5.6087   -1.2051 C   0  0  0  0  0  0  0  0  0  0  0  0
   -7.8854    5.6575    1.1713 C   0  0  0  0  0  0  0  0  0  0  0  0
   -7.9997    6.2361   -0.0951 C   0  0  0  0  0  0  0  0  0  0  0  0
    7.5793    0.3238   -2.7497 C   0  0  0  0  0  0  0  0  0  0  0  0
    3.2314   -2.5001    1.0956 H   0  0  0  0  0  0  0  0  0  0  0  0
    0.8870    1.3288    0.8368 H   0  0  0  0  0  0  0  0  0  0  0  0
    0.6334    1.3987    2.6139 H   0  0  0  0  0  0  0  0  0  0  0  0
    3.0297    0.8872   -0.1257 H   0  0  0  0  0  0  0  0  0  0  0  0
    3.3515    1.5862    1.5130 H   0  0  0  0  0  0  0  0  0  0  0  0
   -1.0775   -2.3114    1.3542 H   0  0  0  0  0  0  0  0  0  0  0  0
    4.9691   -1.6914   -0.1432 H   0  0  0  0  0  0  0  0  0  0  0  0
    5.9036   -1.5872    1.3877 H   0  0  0  0  0  0  0  0  0  0  0  0
    5.4411    0.6907    1.7035 H   0  0  0  0  0  0  0  0  0  0  0  0
    5.4528    2.0188   -0.4128 H   0  0  0  0  0  0  0  0  0  0  0  0
   -3.5383   -1.5504    1.1471 H   0  0  0  0  0  0  0  0  0  0  0  0
   -1.9970    2.4988    2.0447 H   0  0  0  0  0  0  0  0  0  0  0  0
   -1.6795    2.3445    0.2725 H   0  0  0  0  0  0  0  0  0  0  0  0
    0.2773   -4.1852   -2.4718 H   0  0  0  0  0  0  0  0  0  0  0  0
    1.0674   -5.3749   -1.3684 H   0  0  0  0  0  0  0  0  0  0  0  0
    4.2654   -0.1807   -1.7520 H   0  0  0  0  0  0  0  0  0  0  0  0
    4.9606    1.2855   -2.4801 H   0  0  0  0  0  0  0  0  0  0  0  0
    7.5502    1.4871    0.5562 H   0  0  0  0  0  0  0  0  0  0  0  0
    7.5180   -0.2149   -0.0087 H   0  0  0  0  0  0  0  0  0  0  0  0
   -4.8706   -2.2435   -0.7824 H   0  0  0  0  0  0  0  0  0  0  0  0
   -3.4343   -2.9810   -1.5860 H   0  0  0  0  0  0  0  0  0  0  0  0
   -3.5271   -1.1911   -1.3579 H   0  0  0  0  0  0  0  0  0  0  0  0
   -4.4837   -3.8070    1.2120 H   0  0  0  0  0  0  0  0  0  0  0  0
   -3.0174   -4.5015    0.4332 H   0  0  0  0  0  0  0  0  0  0  0  0
   -2.9172   -3.7732    2.0869 H   0  0  0  0  0  0  0  0  0  0  0  0
   -6.2792    1.9525    1.2467 H   0  0  0  0  0  0  0  0  0  0  0  0
   -5.9555    1.8985   -0.5131 H   0  0  0  0  0  0  0  0  0  0  0  0
   -6.2873    3.9317   -1.9187 H   0  0  0  0  0  0  0  0  0  0  0  0
   -7.1110    4.0195    2.3196 H   0  0  0  0  0  0  0  0  0  0  0  0
   -4.0187    1.0287    1.8158 H   0  0  0  0  0  0  0  0  0  0  0  0
   -3.6985    0.8649    0.0430 H   0  0  0  0  0  0  0  0  0  0  0  0
   -4.2825    3.5014    1.5380 H   0  0  0  0  0  0  0  0  0  0  0  0
   -3.9468    3.3456   -0.2299 H   0  0  0  0  0  0  0  0  0  0  0  0
   -0.5732   -6.4768   -2.8979 H   0  0  0  0  0  0  0  0  0  0  0  0
   -1.9019   -5.4304   -2.2500 H   0  0  0  0  0  0  0  0  0  0  0  0
   -1.0856   -6.6395   -1.1701 H   0  0  0  0  0  0  0  0  0  0  0  0
    5.8640   -0.7435   -3.5560 H   0  0  0  0  0  0  0  0  0  0  0  0
    6.4443   -1.3631   -1.9785 H   0  0  0  0  0  0  0  0  0  0  0  0
    7.6661    2.2849   -1.8067 H   0  0  0  0  0  0  0  0  0  0  0  0
    9.0398    1.2127   -1.3964 H   0  0  0  0  0  0  0  0  0  0  0  0
   -7.5128    6.0592   -2.1820 H   0  0  0  0  0  0  0  0  0  0  0  0
   -8.3241    6.1468    2.0333 H   0  0  0  0  0  0  0  0  0  0  0  0
   -8.5299    7.1717   -0.2156 H   0  0  0  0  0  0  0  0  0  0  0  0
    7.5217    0.9389   -3.6731 H   0  0  0  0  0  0  0  0  0  0  0  0
    8.3909   -0.4193   -2.9015 H   0  0  0  0  0  0  0  0  0  0  0  0
  2  1  1  0
  3  1  1  0
  4  5  1  0
  5  2  1  0
  6  1  1  0
  4  7  1  6
  8  7  1  0
  9  3  1  0
  3 10  1  0
 11  6  1  0
 12  8  1  0
 13 12  1  0
 14  4  2  0
 15  2  2  0
 16 10  1  0
 17 10  2  0
 18 13  2  0
 11 19  1  0
  8 20  1  0
 22 28  1  0
 23 13  1  0
 24 19  1  0
 25 19  1  0
 26 20  1  0
 27 20  1  0
 28 32  1  0
 29 22  2  0
 30 22  1  0
 31 21  1  0
 32 31  1  0
 33 23  1  0
 34 24  1  0
 35 25  1  0
 36 29  1  0
 37 30  2  0
 38 36  2  0
 39 34  1  0
  9 11  1  0
 39 35  1  0
 38 37  1  0
  4 21  1  0
  3 40  1  6
  5 41  1  0
  5 42  1  0
  6 43  1  0
  6 44  1  0
  8 45  1  1
  9 46  1  0
  9 47  1  0
 11 48  1  1
 19 49  1  0
 20 50  1  0
 21 51  1  0
 21 52  1  0
 23 53  1  0
 23 54  1  0
 24 55  1  0
 24 56  1  0
 25 57  1  0
 25 58  1  0
 26 59  1  0
 26 60  1  0
 26 61  1  0
 27 62  1  0
 27 63  1  0
 27 64  1  0
 28 65  1  0
 28 66  1  0
 29 67  1  0
 30 68  1  0
 31 69  1  0
 31 70  1  0
 32 71  1  0
 32 72  1  0
 33 73  1  0
 33 74  1  0
 33 75  1  0
 34 76  1  0
 34 77  1  0
 35 78  1  0
 35 79  1  0
 36 80  1  0
 37 81  1  0
 38 82  1  0
 39 83  1  0
 39 84  1  0
M  CHG  1  16  -1
M  END
$$$$
