
     RDKit          3D

 84 86  0  0  0  0  0  0  0  0999 V2000
    1.5659   -0.2285   -0.8375 N   0  0  0  0  0  0  0  0  0  0  0  0
    0.2540   -0.2361   -0.2451 C   0  0  0  0  0  0  0  0  0  0  0  0
    1.7928   -0.1474   -2.2726 C   0  0  1  0  0  0  0  0  0  0  0  0
   -1.6185    0.0961    1.7943 P   0  0  1  0  0  0  0  0  0  0  0  0
    0.0911   -0.2581    1.2552 C   0  0  0  0  0  0  0  0  0  0  0  0
    2.8031   -0.1956   -0.0728 C   0  0  0  0  0  0  0  0  0  0  0  0
   -2.7448   -0.9353    1.0226 O   0  0  0  0  0  0  0  0  0  0  0  0
   -2.5360   -2.2771    1.4169 C   0  0  2  0  0  0  0  0  0  0  0  0
    3.2820    0.1653   -2.4240 C   0  0  0  0  0  0  0  0  0  0  0  0
    1.4264   -1.4484   -2.9324 C   0  0  0  0  0  0  0  0  0  0  0  0
    3.9330   -0.2855   -1.1071 C   0  0  1  0  0  0  0  0  0  0  0  0
   -1.4878   -2.8400    0.6197 O   0  0  0  0  0  0  0  0  0  0  0  0
   -0.5991   -3.8260    1.0653 C   0  0  0  0  0  0  0  0  0  0  0  0
   -1.7051   -0.0561    3.2975 O   0  0  0  0  0  0  0  0  0  0  0  0
   -0.7603   -0.2720   -0.9943 O   0  0  0  0  0  0  0  0  0  0  0  0
    0.3796   -1.4889   -3.8486 O   0  0  0  0  0  0  0  0  0  0  0  0
    2.0506   -2.5068   -2.6552 O   0  0  0  0  0  0  0  0  0  0  0  0
   -0.6422   -4.2488    2.2523 O   0  0  0  0  0  0  0  0  0  0  0  0
    5.1879    0.5460   -0.7204 C   0  0  0  0  0  0  0  0  0  0  0  0
   -3.8563   -3.0513    1.1925 C   0  0  0  0  0  0  0  0  0  0  0  0
   -1.9845    1.8315    1.3599 C   0  0  0  0  0  0  0  0  0  0  0  0
   -4.7955    3.7689   -0.3616 C   0  0  0  0  0  0  0  0  0  0  0  0
    0.3911   -4.4032    0.1059 C   0  0  0  0  0  0  0  0  0  0  0  0
    5.7294    0.1261    0.6752 C   0  0  0  0  0  0  0  0  0  0  0  0
    6.3008    0.4170   -1.7840 C   0  0  0  0  0  0  0  0  0  0  0  0
   -3.8226   -4.4470    1.8263 C   0  0  0  0  0  0  0  0  0  0  0  0
   -4.2139   -3.1521   -0.2978 C   0  0  0  0  0  0  0  0  0  0  0  0
   -4.7171    2.2678   -0.2473 C   0  0  0  0  0  0  0  0  0  0  0  0
   -3.6702    4.5157   -0.7497 C   0  0  0  0  0  0  0  0  0  0  0  0
   -5.9872    4.4384   -0.0391 C   0  0  0  0  0  0  0  0  0  0  0  0
   -3.3211    2.3254    1.9422 C   0  0  0  0  0  0  0  0  0  0  0  0
   -4.5785    1.8038    1.2148 C   0  0  0  0  0  0  0  0  0  0  0  0
   -0.1748   -5.6557   -0.5511 C   0  0  0  0  0  0  0  0  0  0  0  0
    7.2313    0.4141    0.8756 C   0  0  0  0  0  0  0  0  0  0  0  0
    7.5061    1.3305   -1.4733 C   0  0  0  0  0  0  0  0  0  0  0  0
   -3.7402    5.9111   -0.8200 C   0  0  0  0  0  0  0  0  0  0  0  0
   -6.0536    5.8338   -0.1133 C   0  0  0  0  0  0  0  0  0  0  0  0
   -4.9309    6.5699   -0.5026 C   0  0  0  0  0  0  0  0  0  0  0  0
    7.7005    1.5999    0.0302 C   0  0  0  0  0  0  0  0  0  0  0  0
    1.1895    0.6809   -2.7084 H   0  0  0  0  0  0  0  0  0  0  0  0
    0.4005   -1.2479    1.6456 H   0  0  0  0  0  0  0  0  0  0  0  0
    0.7501    0.5094    1.7099 H   0  0  0  0  0  0  0  0  0  0  0  0
    2.8510    0.7584    0.4960 H   0  0  0  0  0  0  0  0  0  0  0  0
    2.8487   -1.0572    0.6293 H   0  0  0  0  0  0  0  0  0  0  0  0
   -2.2872   -2.3476    2.5025 H   0  0  0  0  0  0  0  0  0  0  0  0
    3.7382   -0.3452   -3.3008 H   0  0  0  0  0  0  0  0  0  0  0  0
    3.4026    1.2644   -2.5530 H   0  0  0  0  0  0  0  0  0  0  0  0
    4.2242   -1.3559   -1.2143 H   0  0  0  0  0  0  0  0  0  0  0  0
    4.8915    1.6186   -0.6684 H   0  0  0  0  0  0  0  0  0  0  0  0
   -4.6708   -2.4835    1.6950 H   0  0  0  0  0  0  0  0  0  0  0  0
   -1.1690    2.4581    1.7786 H   0  0  0  0  0  0  0  0  0  0  0  0
   -1.9493    1.9529    0.2603 H   0  0  0  0  0  0  0  0  0  0  0  0
    1.3325   -4.6539    0.6410 H   0  0  0  0  0  0  0  0  0  0  0  0
    0.6229   -3.6486   -0.6755 H   0  0  0  0  0  0  0  0  0  0  0  0
    5.1551    0.6680    1.4577 H   0  0  0  0  0  0  0  0  0  0  0  0
    5.5652   -0.9611    0.8418 H   0  0  0  0  0  0  0  0  0  0  0  0
    5.9179    0.6807   -2.7914 H   0  0  0  0  0  0  0  0  0  0  0  0
    6.6419   -0.6416   -1.8249 H   0  0  0  0  0  0  0  0  0  0  0  0
   -4.8202   -4.9259    1.7364 H   0  0  0  0  0  0  0  0  0  0  0  0
   -3.0784   -5.0982    1.3254 H   0  0  0  0  0  0  0  0  0  0  0  0
   -3.5776   -4.3740    2.9062 H   0  0  0  0  0  0  0  0  0  0  0  0
   -5.2094   -3.6293   -0.4212 H   0  0  0  0  0  0  0  0  0  0  0  0
   -3.4611   -3.7589   -0.8426 H   0  0  0  0  0  0  0  0  0  0  0  0
   -4.2581   -2.1428   -0.7551 H   0  0  0  0  0  0  0  0  0  0  0  0
   -5.6473    1.8297   -0.6668 H   0  0  0  0  0  0  0  0  0  0  0  0
   -3.8918    1.8649   -0.8714 H   0  0  0  0  0  0  0  0  0  0  0  0
   -2.7390    4.0198   -0.9967 H   0  0  0  0  0  0  0  0  0  0  0  0
   -6.8622    3.8786    0.2696 H   0  0  0  0  0  0  0  0  0  0  0  0
   -3.3274    3.4354    1.9198 H   0  0  0  0  0  0  0  0  0  0  0  0
   -3.3823    2.0371    3.0163 H   0  0  0  0  0  0  0  0  0  0  0  0
   -5.4732    2.1481    1.7787 H   0  0  0  0  0  0  0  0  0  0  0  0
   -4.6007    0.6966    1.2487 H   0  0  0  0  0  0  0  0  0  0  0  0
   -1.1169   -5.4174   -1.0900 H   0  0  0  0  0  0  0  0  0  0  0  0
   -0.3778   -6.4344    0.2173 H   0  0  0  0  0  0  0  0  0  0  0  0
    0.5604   -6.0562   -1.2798 H   0  0  0  0  0  0  0  0  0  0  0  0
    7.8219   -0.4854    0.5923 H   0  0  0  0  0  0  0  0  0  0  0  0
    7.4307    0.6182    1.9494 H   0  0  0  0  0  0  0  0  0  0  0  0
    7.3754    2.3051   -1.9919 H   0  0  0  0  0  0  0  0  0  0  0  0
    8.4245    0.8575   -1.8863 H   0  0  0  0  0  0  0  0  0  0  0  0
   -2.8693    6.4809   -1.1181 H   0  0  0  0  0  0  0  0  0  0  0  0
   -6.9755    6.3444    0.1372 H   0  0  0  0  0  0  0  0  0  0  0  0
   -4.9856    7.6501   -0.5553 H   0  0  0  0  0  0  0  0  0  0  0  0
    7.1263    2.5057    0.3253 H   0  0  0  0  0  0  0  0  0  0  0  0
    8.7735    1.8002    0.2348 H   0  0  0  0  0  0  0  0  0  0  0  0
  2  1  1  0
  3  1  1  0
  4  5  1  0
  5  2  1  0
  6  1  1  0
  4  7  1  6
  8  7  1  0
  9  3  1  0
  3 10  1  0
 11  6  1  0
 12  8  1  0
 13 12  1  0
 14  4  2  0
 15  2  2  0
 16 10  1  0
 17 10  2  0
 18 13  2  0
 11 19  1  0
  8 20  1  0
 22 28  1  0
 23 13  1  0
 24 19  1  0
 25 19  1  0
 26 20  1  0
 27 20  1  0
 28 32  1  0
 29 22  2  0
 30 22  1  0
 31 21  1  0
 32 31  1  0
 33 23  1  0
 34 24  1  0
 35 25  1  0
 36 29  1  0
 37 30  2  0
 38 36  2  0
 39 34  1  0
  9 11  1  0
 39 35  1  0
 38 37  1  0
  4 21  1  0
  3 40  1  6
  5 41  1  0
  5 42  1  0
  6 43  1  0
  6 44  1  0
  8 45  1  1
  9 46  1  0
  9 47  1  0
 11 48  1  6
 19 49  1  0
 20 50  1  0
 21 51  1  0
 21 52  1  0
 23 53  1  0
 23 54  1  0
 24 55  1  0
 24 56  1  0
 25 57  1  0
 25 58  1  0
 26 59  1  0
 26 60  1  0
 26 61  1  0
 27 62  1  0
 27 63  1  0
 27 64  1  0
 28 65  1  0
 28 66  1  0
 29 67  1  0
 30 68  1  0
 31 69  1  0
 31 70  1  0
 32 71  1  0
 32 72  1  0
 33 73  1  0
 33 74  1  0
 33 75  1  0
 34 76  1  0
 34 77  1  0
 35 78  1  0
 35 79  1  0
 36 80  1  0
 37 81  1  0
 38 82  1  0
 39 83  1  0
 39 84  1  0
M  CHG  1  16  -1
M  END
$$$$
