
     RDKit          3D

 77 78  0  0  0  0  0  0  0  0999 V2000
    0.5330    0.6605    0.3699 C   0  0  0  0  0  0  0  0  0  0  0  0
   -0.1888   -0.6611    0.0832 C   0  0  0  0  0  0  0  0  0  0  0  0
   -1.5825   -0.4817   -0.3125 N   0  0  0  0  0  0  0  0  0  0  0  0
    1.8706    0.4230    0.7877 O   0  0  0  0  0  0  0  0  0  0  0  0
   -4.0902    0.7073   -1.1587 C   0  0  0  0  0  0  0  0  0  0  0  0
   -4.1081    1.6619   -2.1906 C   0  0  0  0  0  0  0  0  0  0  0  0
   -2.9400    2.3022   -2.6067 C   0  0  0  0  0  0  0  0  0  0  0  0
   -1.7196    1.9914   -2.0082 C   0  0  0  0  0  0  0  0  0  0  0  0
   -1.6427    1.0288   -0.9935 C   0  0  0  0  0  0  0  0  0  0  0  0
   -2.8424    0.4111   -0.5755 C   0  0  0  0  0  0  0  0  0  0  0  0
   -5.3529    0.0780   -0.7207 C   0  0  0  0  0  0  0  0  0  0  0  0
   -5.4994   -1.3187   -0.6715 C   0  0  0  0  0  0  0  0  0  0  0  0
   -6.7029   -1.9091   -0.2744 C   0  0  0  0  0  0  0  0  0  0  0  0
   -7.7892   -1.1088    0.0794 C   0  0  0  0  0  0  0  0  0  0  0  0
   -7.6691    0.2833    0.0428 C   0  0  0  0  0  0  0  0  0  0  0  0
   -6.4578    0.8669   -0.3551 C   0  0  0  0  0  0  0  0  0  0  0  0
   -8.7924    1.1826    0.4007 C   0  0  0  0  0  0  0  0  0  0  0  0
   -9.8669    0.5212    0.8693 O   0  0  0  0  0  0  0  0  0  0  0  0
   -8.7921    2.3965    0.3004 O   0  0  0  0  0  0  0  0  0  0  0  0
   -2.7867   -0.4925    0.4617 O   0  0  0  0  0  0  0  0  0  0  0  0
   -0.3860    0.7806   -0.3901 N   0  0  0  0  0  0  0  0  0  0  0  0
   -0.1957   -0.2809    0.4399 N   0  0  0  0  0  0  0  0  0  0  0  0
    1.0388   -0.5768    0.7117 C   0  0  0  0  0  0  0  0  0  0  0  0
    2.3153    0.0532    0.2464 C   0  0  0  0  0  0  0  0  0  0  0  0
    3.2743   -0.7206    0.8916 N   0  0  0  0  0  0  0  0  0  0  0  0
    2.7462   -1.7546    1.6885 N   0  0  0  0  0  0  0  0  0  0  0  0
    1.4508   -1.6906    1.6019 C   0  0  0  0  0  0  0  0  0  0  0  0
    0.4640   -2.5758    2.2641 C   0  0  0  0  0  0  0  0  0  0  0  0
    2.3498    0.9957   -0.5186 O   0  0  0  0  0  0  0  0  0  0  0  0
    4.6833   -0.5808    0.8236 C   0  0  0  0  0  0  0  0  0  0  0  0
    5.2921    0.4323    0.0707 C   0  0  0  0  0  0  0  0  0  0  0  0
    6.6939    0.5710    0.0114 C   0  0  0  0  0  0  0  0  0  0  0  0
    7.5093   -0.3435    0.7012 C   0  0  0  0  0  0  0  0  0  0  0  0
    6.9042   -1.3523    1.4607 C   0  0  0  0  0  0  0  0  0  0  0  0
    5.5127   -1.4685    1.5202 C   0  0  0  0  0  0  0  0  0  0  0  0
    9.0102   -0.2464    0.6694 C   0  0  0  0  0  0  0  0  0  0  0  0
    7.2839    1.6753   -0.8251 C   0  0  0  0  0  0  0  0  0  0  0  0
    0.7357   -0.3989    0.2278 C   0  0  0  0  0  0  0  0  0  0  0  0
   -0.6452   -0.4973   -0.4290 C   0  0  0  0  0  0  0  0  0  0  0  0
   -1.4961    0.6465   -0.0823 N   0  0  0  0  0  0  0  0  0  0  0  0
    1.3459    0.8440   -0.1141 O   0  0  0  0  0  0  0  0  0  0  0  0
    0.0255    1.2116    1.1675 H   0  0  0  0  0  0  0  0  0  0  0  0
    0.5578    1.2971   -0.5203 H   0  0  0  0  0  0  0  0  0  0  0  0
    0.3430   -1.2003   -0.7087 H   0  0  0  0  0  0  0  0  0  0  0  0
   -0.1402   -1.3063    0.9680 H   0  0  0  0  0  0  0  0  0  0  0  0
   -1.6419    0.1485   -1.1120 H   0  0  0  0  0  0  0  0  0  0  0  0
   -2.0958   -0.0279    0.4435 H   0  0  0  0  0  0  0  0  0  0  0  0
    2.3193   -0.0632    0.0739 H   0  0  0  0  0  0  0  0  0  0  0  0
   -5.0461    1.9185   -2.6798 H   0  0  0  0  0  0  0  0  0  0  0  0
   -2.9838    3.0499   -3.3937 H   0  0  0  0  0  0  0  0  0  0  0  0
   -0.8262    2.5129   -2.3401 H   0  0  0  0  0  0  0  0  0  0  0  0
   -4.6617   -1.9585   -0.9430 H   0  0  0  0  0  0  0  0  0  0  0  0
   -6.7897   -2.9928   -0.2440 H   0  0  0  0  0  0  0  0  0  0  0  0
   -8.7208   -1.5788    0.3821 H   0  0  0  0  0  0  0  0  0  0  0  0
   -6.3713    1.9527   -0.3667 H   0  0  0  0  0  0  0  0  0  0  0  0
  -10.5077    1.2341    1.0735 H   0  0  0  0  0  0  0  0  0  0  0  0
   -1.8327   -0.4934    0.6959 H   0  0  0  0  0  0  0  0  0  0  0  0
    0.4122    1.2075   -0.8803 H   0  0  0  0  0  0  0  0  0  0  0  0
   -0.2181   -1.9772    2.8746 H   0  0  0  0  0  0  0  0  0  0  0  0
    0.9771   -3.2962    2.9062 H   0  0  0  0  0  0  0  0  0  0  0  0
   -0.1089   -3.1167    1.5070 H   0  0  0  0  0  0  0  0  0  0  0  0
    4.6903    1.1426   -0.4888 H   0  0  0  0  0  0  0  0  0  0  0  0
    7.5128   -2.0634    2.0156 H   0  0  0  0  0  0  0  0  0  0  0  0
    5.0892   -2.2716    2.1202 H   0  0  0  0  0  0  0  0  0  0  0  0
    9.3435    0.6210    1.2491 H   0  0  0  0  0  0  0  0  0  0  0  0
    9.3715   -0.1583   -0.3609 H   0  0  0  0  0  0  0  0  0  0  0  0
    9.4777   -1.1391    1.0987 H   0  0  0  0  0  0  0  0  0  0  0  0
    7.7019    1.2635   -1.7490 H   0  0  0  0  0  0  0  0  0  0  0  0
    6.5282    2.4204   -1.0938 H   0  0  0  0  0  0  0  0  0  0  0  0
    8.0680    2.2031   -0.2723 H   0  0  0  0  0  0  0  0  0  0  0  0
    0.6533   -0.4540    1.3181 H   0  0  0  0  0  0  0  0  0  0  0  0
    1.3776   -1.2129   -0.1232 H   0  0  0  0  0  0  0  0  0  0  0  0
   -1.1370   -1.4294   -0.1327 H   0  0  0  0  0  0  0  0  0  0  0  0
   -0.5312   -0.5095   -1.5179 H   0  0  0  0  0  0  0  0  0  0  0  0
   -1.5881    0.6986    0.9302 H   0  0  0  0  0  0  0  0  0  0  0  0
   -0.9627    1.4869   -0.3289 H   0  0  0  0  0  0  0  0  0  0  0  0
    2.2478    0.8260    0.2518 H   0  0  0  0  0  0  0  0  0  0  0  0
  4  1  1  0
  1  2  1  0
  2  3  1  0
 10 20  1  0
  9 21  1  0
 12 13  2  0
 21 22  1  0
  8  9  2  0
 22 23  2  0
 23 24  1  0
 13 14  1  0
  6  7  2  0
 14 15  2  0
  9 10  1  0
 24 25  1  0
 25 26  1  0
 26 27  2  0
 27 23  1  0
 15 16  1  0
 27 28  1  0
 16 11  2  0
 24 29  2  0
  5 11  1  0
 25 30  1  0
 10  5  2  0
 30 31  2  0
 15 17  1  0
 31 32  1  0
  5  6  1  0
 32 33  2  0
  7  8  1  0
 33 34  1  0
 17 18  1  0
 34 35  2  0
 35 30  1  0
 17 19  2  0
 33 36  1  0
 11 12  1  0
 32 37  1  0
 41 38  1  0
 38 39  1  0
 39 40  1  0
  1 42  1  0
  1 43  1  0
  2 44  1  0
  2 45  1  0
  3 46  1  0
  3 47  1  0
  4 48  1  0
  6 49  1  0
  7 50  1  0
  8 51  1  0
 12 52  1  0
 13 53  1  0
 14 54  1  0
 16 55  1  0
 18 56  1  0
 20 57  1  0
 21 58  1  0
 28 59  1  0
 28 60  1  0
 28 61  1  0
 31 62  1  0
 34 63  1  0
 35 64  1  0
 36 65  1  0
 36 66  1  0
 36 67  1  0
 37 68  1  0
 37 69  1  0
 37 70  1  0
 38 71  1  0
 38 72  1  0
 39 73  1  0
 39 74  1  0
 40 75  1  0
 40 76  1  0
 41 77  1  0
M  END
$$$$
