
     RDKit          3D

 77 78  0  0  0  0  0  0  0  0999 V2000
   -0.8591   -0.4340   -0.1123 C   0  0  0  0  0  0  0  0  0  0  0  0
    0.4205    0.3760    0.1153 C   0  0  0  0  0  0  0  0  0  0  0  0
    1.3099   -0.2567    1.0849 N   0  0  0  0  0  0  0  0  0  0  0  0
   -1.7012    0.2271   -1.0513 O   0  0  0  0  0  0  0  0  0  0  0  0
   -4.3160    0.9290   -0.5886 C   0  0  0  0  0  0  0  0  0  0  0  0
   -4.6061    2.0773   -1.3453 C   0  0  0  0  0  0  0  0  0  0  0  0
   -3.6685    3.1031   -1.4949 C   0  0  0  0  0  0  0  0  0  0  0  0
   -2.4056    2.9899   -0.9127 C   0  0  0  0  0  0  0  0  0  0  0  0
   -2.0512    1.8401   -0.2011 C   0  0  0  0  0  0  0  0  0  0  0  0
   -3.0364    0.8493   -0.0058 C   0  0  0  0  0  0  0  0  0  0  0  0
   -5.3404   -0.1182   -0.4071 C   0  0  0  0  0  0  0  0  0  0  0  0
   -6.6299    0.2046    0.0530 C   0  0  0  0  0  0  0  0  0  0  0  0
   -7.6054   -0.7807    0.2283 C   0  0  0  0  0  0  0  0  0  0  0  0
   -7.3074   -2.1142   -0.0518 C   0  0  0  0  0  0  0  0  0  0  0  0
   -6.0334   -2.4628   -0.5116 C   0  0  0  0  0  0  0  0  0  0  0  0
   -5.0623   -1.4671   -0.6910 C   0  0  0  0  0  0  0  0  0  0  0  0
   -5.6645   -3.8682   -0.8152 C   0  0  0  0  0  0  0  0  0  0  0  0
   -6.6532   -4.7393   -0.5470 O   0  0  0  0  0  0  0  0  0  0  0  0
   -4.5958   -4.2485   -1.2577 O   0  0  0  0  0  0  0  0  0  0  0  0
   -2.7433   -0.2091    0.8301 O   0  0  0  0  0  0  0  0  0  0  0  0
   -0.7756    1.6697    0.3951 N   0  0  0  0  0  0  0  0  0  0  0  0
    0.1464    2.6647    0.2443 N   0  0  0  0  0  0  0  0  0  0  0  0
    1.3920    2.3087    0.2630 C   0  0  0  0  0  0  0  0  0  0  0  0
    2.0145    0.9530    0.3711 C   0  0  0  0  0  0  0  0  0  0  0  0
    3.3701    1.2479    0.2737 N   0  0  0  0  0  0  0  0  0  0  0  0
    3.6588    2.6211    0.1456 N   0  0  0  0  0  0  0  0  0  0  0  0
    2.5258    3.2577    0.1432 C   0  0  0  0  0  0  0  0  0  0  0  0
    2.3185    4.7204    0.0304 C   0  0  0  0  0  0  0  0  0  0  0  0
    1.3658   -0.0657    0.4961 O   0  0  0  0  0  0  0  0  0  0  0  0
    4.4525    0.3320    0.2476 C   0  0  0  0  0  0  0  0  0  0  0  0
    4.2518   -1.0533    0.3255 C   0  0  0  0  0  0  0  0  0  0  0  0
    5.3293   -1.9618    0.2737 C   0  0  0  0  0  0  0  0  0  0  0  0
    6.6433   -1.4723    0.1554 C   0  0  0  0  0  0  0  0  0  0  0  0
    6.8467   -0.0887    0.0766 C   0  0  0  0  0  0  0  0  0  0  0  0
    5.7674    0.7982    0.1252 C   0  0  0  0  0  0  0  0  0  0  0  0
    7.8260   -2.3981    0.0757 C   0  0  0  0  0  0  0  0  0  0  0  0
    5.0476   -3.4388    0.3551 C   0  0  0  0  0  0  0  0  0  0  0  0
    0.9369    0.5538    0.2605 C   0  0  0  0  0  0  0  0  0  0  0  0
   -0.4421   -0.0430    0.5554 C   0  0  0  0  0  0  0  0  0  0  0  0
   -1.0384   -0.5701   -0.6795 N   0  0  0  0  0  0  0  0  0  0  0  0
    1.7378   -0.4126   -0.4157 O   0  0  0  0  0  0  0  0  0  0  0  0
   -1.4193   -0.5697    0.8201 H   0  0  0  0  0  0  0  0  0  0  0  0
   -0.6219   -1.4240   -0.5155 H   0  0  0  0  0  0  0  0  0  0  0  0
    0.9447    0.5129   -0.8383 H   0  0  0  0  0  0  0  0  0  0  0  0
    0.1571    1.3803    0.4680 H   0  0  0  0  0  0  0  0  0  0  0  0
    1.6061   -1.1657    0.7292 H   0  0  0  0  0  0  0  0  0  0  0  0
    2.1608    0.2980    1.1690 H   0  0  0  0  0  0  0  0  0  0  0  0
   -1.9975    1.0558   -0.6313 H   0  0  0  0  0  0  0  0  0  0  0  0
   -5.5763    2.1851   -1.8279 H   0  0  0  0  0  0  0  0  0  0  0  0
   -3.9238    3.9914   -2.0679 H   0  0  0  0  0  0  0  0  0  0  0  0
   -1.6909    3.7986   -1.0401 H   0  0  0  0  0  0  0  0  0  0  0  0
   -6.8800    1.2374    0.2934 H   0  0  0  0  0  0  0  0  0  0  0  0
   -8.5923   -0.5076    0.5931 H   0  0  0  0  0  0  0  0  0  0  0  0
   -8.0725   -2.8722    0.0975 H   0  0  0  0  0  0  0  0  0  0  0  0
   -4.0710   -1.7479   -1.0487 H   0  0  0  0  0  0  0  0  0  0  0  0
   -6.2677   -5.6125   -0.7728 H   0  0  0  0  0  0  0  0  0  0  0  0
   -2.1165    0.1382    1.4906 H   0  0  0  0  0  0  0  0  0  0  0  0
   -0.4680    0.6889    0.3322 H   0  0  0  0  0  0  0  0  0  0  0  0
    1.7787    4.9438   -0.8932 H   0  0  0  0  0  0  0  0  0  0  0  0
    3.2819    5.2382    0.0153 H   0  0  0  0  0  0  0  0  0  0  0  0
    1.7380    5.0777    0.8861 H   0  0  0  0  0  0  0  0  0  0  0  0
    3.2495   -1.4625    0.4191 H   0  0  0  0  0  0  0  0  0  0  0  0
    7.8513    0.3161   -0.0275 H   0  0  0  0  0  0  0  0  0  0  0  0
    5.9760    1.8635    0.0622 H   0  0  0  0  0  0  0  0  0  0  0  0
    7.8065   -3.1218    0.8960 H   0  0  0  0  0  0  0  0  0  0  0  0
    8.7707   -1.8474    0.1513 H   0  0  0  0  0  0  0  0  0  0  0  0
    7.8253   -2.9319   -0.8784 H   0  0  0  0  0  0  0  0  0  0  0  0
    3.9709   -3.6463    0.3553 H   0  0  0  0  0  0  0  0  0  0  0  0
    5.4680   -3.8516    1.2769 H   0  0  0  0  0  0  0  0  0  0  0  0
    5.4807   -3.9571   -0.5071 H   0  0  0  0  0  0  0  0  0  0  0  0
    1.4436    0.8446    1.1845 H   0  0  0  0  0  0  0  0  0  0  0  0
    0.8506    1.4362   -0.3817 H   0  0  0  0  0  0  0  0  0  0  0  0
   -0.3350   -0.8726    1.2608 H   0  0  0  0  0  0  0  0  0  0  0  0
   -1.0975    0.7105    1.0028 H   0  0  0  0  0  0  0  0  0  0  0  0
   -1.9572   -0.9584   -0.4614 H   0  0  0  0  0  0  0  0  0  0  0  0
   -1.2084    0.1998   -1.3295 H   0  0  0  0  0  0  0  0  0  0  0  0
    1.1097   -0.8881   -0.9961 H   0  0  0  0  0  0  0  0  0  0  0  0
  4  1  1  0
  1  2  1  0
  2  3  1  0
 10 20  1  0
  9 21  1  0
 12 13  2  0
 21 22  1  0
  8  9  2  0
 22 23  2  0
 23 24  1  0
 13 14  1  0
  6  7  2  0
 14 15  2  0
  9 10  1  0
 24 25  1  0
 25 26  1  0
 26 27  2  0
 27 23  1  0
 15 16  1  0
 27 28  1  0
 16 11  2  0
 24 29  2  0
  5 11  1  0
 25 30  1  0
 10  5  2  0
 30 31  2  0
 15 17  1  0
 31 32  1  0
  5  6  1  0
 32 33  2  0
  7  8  1  0
 33 34  1  0
 17 18  1  0
 34 35  2  0
 35 30  1  0
 17 19  2  0
 33 36  1  0
 11 12  1  0
 32 37  1  0
 41 38  1  0
 38 39  1  0
 39 40  1  0
  1 42  1  0
  1 43  1  0
  2 44  1  0
  2 45  1  0
  3 46  1  0
  3 47  1  0
  4 48  1  0
  6 49  1  0
  7 50  1  0
  8 51  1  0
 12 52  1  0
 13 53  1  0
 14 54  1  0
 16 55  1  0
 18 56  1  0
 20 57  1  0
 21 58  1  0
 28 59  1  0
 28 60  1  0
 28 61  1  0
 31 62  1  0
 34 63  1  0
 35 64  1  0
 36 65  1  0
 36 66  1  0
 36 67  1  0
 37 68  1  0
 37 69  1  0
 37 70  1  0
 38 71  1  0
 38 72  1  0
 39 73  1  0
 39 74  1  0
 40 75  1  0
 40 76  1  0
 41 77  1  0
M  END
$$$$
