
     RDKit          3D

 77 78  0  0  0  0  0  0  0  0999 V2000
    0.9680   -0.5639   -0.0958 C   0  0  0  0  0  0  0  0  0  0  0  0
   -0.5314   -0.3772   -0.3440 C   0  0  0  0  0  0  0  0  0  0  0  0
   -0.9357    1.0231   -0.1598 N   0  0  0  0  0  0  0  0  0  0  0  0
    1.3403    0.0264    1.1474 O   0  0  0  0  0  0  0  0  0  0  0  0
    4.0332   -1.9619    0.6437 C   0  0  0  0  0  0  0  0  0  0  0  0
    3.9156   -3.0356    1.5428 C   0  0  0  0  0  0  0  0  0  0  0  0
    2.6653   -3.5188    1.9335 C   0  0  0  0  0  0  0  0  0  0  0  0
    1.5006   -2.9303    1.4389 C   0  0  0  0  0  0  0  0  0  0  0  0
    1.5644   -1.8411    0.5610 C   0  0  0  0  0  0  0  0  0  0  0  0
    2.8408   -1.3883    0.1619 C   0  0  0  0  0  0  0  0  0  0  0  0
    5.3690   -1.4846    0.2361 C   0  0  0  0  0  0  0  0  0  0  0  0
    6.3073   -2.3655   -0.3303 C   0  0  0  0  0  0  0  0  0  0  0  0
    7.5754   -1.9232   -0.7146 C   0  0  0  0  0  0  0  0  0  0  0  0
    7.9283   -0.5867   -0.5394 C   0  0  0  0  0  0  0  0  0  0  0  0
    7.0137    0.3105    0.0221 C   0  0  0  0  0  0  0  0  0  0  0  0
    5.7438   -0.1406    0.4085 C   0  0  0  0  0  0  0  0  0  0  0  0
    7.4304    1.7239    0.1850 C   0  0  0  0  0  0  0  0  0  0  0  0
    6.4929    2.4878    0.7726 O   0  0  0  0  0  0  0  0  0  0  0  0
    8.5014    2.1940   -0.1548 O   0  0  0  0  0  0  0  0  0  0  0  0
    2.9185   -0.3638   -0.7531 O   0  0  0  0  0  0  0  0  0  0  0  0
    0.3543   -1.3045    0.0561 N   0  0  0  0  0  0  0  0  0  0  0  0
    0.3421   -0.1163   -0.6080 N   0  0  0  0  0  0  0  0  0  0  0  0
   -0.8167    0.4511   -0.7470 C   0  0  0  0  0  0  0  0  0  0  0  0
   -2.1723    0.0277   -0.2728 C   0  0  0  0  0  0  0  0  0  0  0  0
   -2.9818    1.0479   -0.7612 N   0  0  0  0  0  0  0  0  0  0  0  0
   -2.2893    2.0535   -1.4631 N   0  0  0  0  0  0  0  0  0  0  0  0
   -1.0305    1.7316   -1.4651 C   0  0  0  0  0  0  0  0  0  0  0  0
    0.0880    2.4863   -2.0773 C   0  0  0  0  0  0  0  0  0  0  0  0
   -2.3630   -0.9786    0.3795 O   0  0  0  0  0  0  0  0  0  0  0  0
   -4.3871    1.1763   -0.6223 C   0  0  0  0  0  0  0  0  0  0  0  0
   -5.1542    0.2238    0.0617 C   0  0  0  0  0  0  0  0  0  0  0  0
   -6.5523    0.3512    0.1879 C   0  0  0  0  0  0  0  0  0  0  0  0
   -7.1988    1.4709   -0.3658 C   0  0  0  0  0  0  0  0  0  0  0  0
   -6.4369    2.4216   -1.0552 C   0  0  0  0  0  0  0  0  0  0  0  0
   -5.0522    2.2762   -1.1789 C   0  0  0  0  0  0  0  0  0  0  0  0
   -8.6881    1.6541   -0.2666 C   0  0  0  0  0  0  0  0  0  0  0  0
   -7.3195   -0.7056    0.9367 C   0  0  0  0  0  0  0  0  0  0  0  0
   -0.8664   -0.0584   -0.0028 C   0  0  0  0  0  0  0  0  0  0  0  0
    0.4806   -0.7477   -0.2467 C   0  0  0  0  0  0  0  0  0  0  0  0
    1.5903   -0.0025    0.3591 N   0  0  0  0  0  0  0  0  0  0  0  0
   -0.8134    1.2864   -0.4759 O   0  0  0  0  0  0  0  0  0  0  0  0
    1.5603   -0.0949   -0.8885 H   0  0  0  0  0  0  0  0  0  0  0  0
    1.2194   -1.6277   -0.0618 H   0  0  0  0  0  0  0  0  0  0  0  0
   -0.7790   -0.7055   -1.3586 H   0  0  0  0  0  0  0  0  0  0  0  0
   -1.1035   -0.9926    0.3591 H   0  0  0  0  0  0  0  0  0  0  0  0
   -0.9736    1.2125    0.8434 H   0  0  0  0  0  0  0  0  0  0  0  0
   -1.8994    1.1263   -0.4797 H   0  0  0  0  0  0  0  0  0  0  0  0
    1.1345    0.9735    1.0385 H   0  0  0  0  0  0  0  0  0  0  0  0
    4.8097   -3.5053    1.9495 H   0  0  0  0  0  0  0  0  0  0  0  0
    2.6003   -4.3566    2.6228 H   0  0  0  0  0  0  0  0  0  0  0  0
    0.5389   -3.3320    1.7487 H   0  0  0  0  0  0  0  0  0  0  0  0
    6.0440   -3.4097   -0.4908 H   0  0  0  0  0  0  0  0  0  0  0  0
    8.2829   -2.6197   -1.1570 H   0  0  0  0  0  0  0  0  0  0  0  0
    8.9149   -0.2459   -0.8461 H   0  0  0  0  0  0  0  0  0  0  0  0
    5.0287    0.5571    0.8401 H   0  0  0  0  0  0  0  0  0  0  0  0
    6.9052    3.3757    0.8087 H   0  0  0  0  0  0  0  0  0  0  0  0
    1.9741   -0.1672   -0.9364 H   0  0  0  0  0  0  0  0  0  0  0  0
   -0.4864   -1.6258    0.5555 H   0  0  0  0  0  0  0  0  0  0  0  0
    0.5864    1.8638   -2.8248 H   0  0  0  0  0  0  0  0  0  0  0  0
   -0.2899    3.3905   -2.5616 H   0  0  0  0  0  0  0  0  0  0  0  0
    0.8072    2.7692   -1.3040 H   0  0  0  0  0  0  0  0  0  0  0  0
   -4.6817   -0.6433    0.5140 H   0  0  0  0  0  0  0  0  0  0  0  0
   -6.9140    3.2893   -1.5055 H   0  0  0  0  0  0  0  0  0  0  0  0
   -4.5017    3.0426   -1.7201 H   0  0  0  0  0  0  0  0  0  0  0  0
   -9.0274    1.5240    0.7666 H   0  0  0  0  0  0  0  0  0  0  0  0
   -9.1988    0.9313   -0.9113 H   0  0  0  0  0  0  0  0  0  0  0  0
   -8.9895    2.6599   -0.5797 H   0  0  0  0  0  0  0  0  0  0  0  0
   -7.6949   -0.2998    1.8812 H   0  0  0  0  0  0  0  0  0  0  0  0
   -8.1593   -1.0684    0.3355 H   0  0  0  0  0  0  0  0  0  0  0  0
   -6.6910   -1.5724    1.1677 H   0  0  0  0  0  0  0  0  0  0  0  0
   -1.6619   -0.5860   -0.5376 H   0  0  0  0  0  0  0  0  0  0  0  0
   -1.1064   -0.0403    1.0654 H   0  0  0  0  0  0  0  0  0  0  0  0
    0.4600   -1.7666    0.1523 H   0  0  0  0  0  0  0  0  0  0  0  0
    0.6692   -0.8102   -1.3238 H   0  0  0  0  0  0  0  0  0  0  0  0
    1.4155    0.1034    1.3574 H   0  0  0  0  0  0  0  0  0  0  0  0
    1.5290    0.9522   -0.0098 H   0  0  0  0  0  0  0  0  0  0  0  0
   -1.6964    1.6697   -0.3376 H   0  0  0  0  0  0  0  0  0  0  0  0
  4  1  1  0
  1  2  1  0
  2  3  1  0
 10 20  1  0
  9 21  1  0
 12 13  2  0
 21 22  1  0
  8  9  2  0
 22 23  2  0
 23 24  1  0
 13 14  1  0
  6  7  2  0
 14 15  2  0
  9 10  1  0
 24 25  1  0
 25 26  1  0
 26 27  2  0
 27 23  1  0
 15 16  1  0
 27 28  1  0
 16 11  2  0
 24 29  2  0
  5 11  1  0
 25 30  1  0
 10  5  2  0
 30 31  2  0
 15 17  1  0
 31 32  1  0
  5  6  1  0
 32 33  2  0
  7  8  1  0
 33 34  1  0
 17 18  1  0
 34 35  2  0
 35 30  1  0
 17 19  2  0
 33 36  1  0
 11 12  1  0
 32 37  1  0
 41 38  1  0
 38 39  1  0
 39 40  1  0
  1 42  1  0
  1 43  1  0
  2 44  1  0
  2 45  1  0
  3 46  1  0
  3 47  1  0
  4 48  1  0
  6 49  1  0
  7 50  1  0
  8 51  1  0
 12 52  1  0
 13 53  1  0
 14 54  1  0
 16 55  1  0
 18 56  1  0
 20 57  1  0
 21 58  1  0
 28 59  1  0
 28 60  1  0
 28 61  1  0
 31 62  1  0
 34 63  1  0
 35 64  1  0
 36 65  1  0
 36 66  1  0
 36 67  1  0
 37 68  1  0
 37 69  1  0
 37 70  1  0
 38 71  1  0
 38 72  1  0
 39 73  1  0
 39 74  1  0
 40 75  1  0
 40 76  1  0
 41 77  1  0
M  END
$$$$
