
     RDKit          3D

 77 78  0  0  0  0  0  0  0  0999 V2000
    0.7286   -0.2968    0.3786 C   0  0  0  0  0  0  0  0  0  0  0  0
   -0.5366   -0.6082   -0.4286 C   0  0  0  0  0  0  0  0  0  0  0  0
   -1.5170    0.4802   -0.3430 N   0  0  0  0  0  0  0  0  0  0  0  0
    1.2842    0.9444   -0.0530 O   0  0  0  0  0  0  0  0  0  0  0  0
    4.1715   -1.0372   -0.7985 C   0  0  0  0  0  0  0  0  0  0  0  0
    4.3359   -1.3971   -2.1471 C   0  0  0  0  0  0  0  0  0  0  0  0
    3.2369   -1.5538   -2.9935 C   0  0  0  0  0  0  0  0  0  0  0  0
    1.9454   -1.3454   -2.5093 C   0  0  0  0  0  0  0  0  0  0  0  0
    1.7299   -0.9611   -1.1798 C   0  0  0  0  0  0  0  0  0  0  0  0
    2.8562   -0.8312   -0.3387 C   0  0  0  0  0  0  0  0  0  0  0  0
    5.3549   -0.9016    0.0728 C   0  0  0  0  0  0  0  0  0  0  0  0
    5.4796   -1.6569    1.2510 C   0  0  0  0  0  0  0  0  0  0  0  0
    6.6055   -1.5427    2.0702 C   0  0  0  0  0  0  0  0  0  0  0  0
    7.6336   -0.6681    1.7235 C   0  0  0  0  0  0  0  0  0  0  0  0
    7.5342    0.0955    0.5557 C   0  0  0  0  0  0  0  0  0  0  0  0
    6.4008   -0.0243   -0.2617 C   0  0  0  0  0  0  0  0  0  0  0  0
    8.5992    1.0407    0.1429 C   0  0  0  0  0  0  0  0  0  0  0  0
    9.6312    1.0746    1.0056 O   0  0  0  0  0  0  0  0  0  0  0  0
    8.5945    1.7329   -0.8588 O   0  0  0  0  0  0  0  0  0  0  0  0
    2.6570   -0.4859    0.9778 O   0  0  0  0  0  0  0  0  0  0  0  0
    0.3968   -0.7966   -0.7323 N   0  0  0  0  0  0  0  0  0  0  0  0
    0.1193   -0.2402    0.4786 N   0  0  0  0  0  0  0  0  0  0  0  0
   -1.1172    0.1026    0.6755 C   0  0  0  0  0  0  0  0  0  0  0  0
   -2.3083    0.0079   -0.2276 C   0  0  0  0  0  0  0  0  0  0  0  0
   -3.3240    0.5147    0.5761 N   0  0  0  0  0  0  0  0  0  0  0  0
   -2.9018    0.9253    1.8553 N   0  0  0  0  0  0  0  0  0  0  0  0
   -1.6245    0.6978    1.9365 C   0  0  0  0  0  0  0  0  0  0  0  0
   -0.7358    0.9722    3.0899 C   0  0  0  0  0  0  0  0  0  0  0  0
   -2.2471   -0.4154   -1.3640 O   0  0  0  0  0  0  0  0  0  0  0  0
   -4.6938    0.6644    0.2419 C   0  0  0  0  0  0  0  0  0  0  0  0
   -5.1991    0.2675   -1.0039 C   0  0  0  0  0  0  0  0  0  0  0  0
   -6.5615    0.4169   -1.3323 C   0  0  0  0  0  0  0  0  0  0  0  0
   -7.4437    0.9755   -0.3898 C   0  0  0  0  0  0  0  0  0  0  0  0
   -6.9431    1.3732    0.8556 C   0  0  0  0  0  0  0  0  0  0  0  0
   -5.5887    1.2187    1.1655 C   0  0  0  0  0  0  0  0  0  0  0  0
   -8.9060    1.1583   -0.6906 C   0  0  0  0  0  0  0  0  0  0  0  0
   -7.0443   -0.0339   -2.6849 C   0  0  0  0  0  0  0  0  0  0  0  0
    0.6435   -0.4032    0.7176 C   0  0  0  0  0  0  0  0  0  0  0  0
   -0.3155    0.5626    0.0130 C   0  0  0  0  0  0  0  0  0  0  0  0
   -1.6363   -0.0115   -0.2265 N   0  0  0  0  0  0  0  0  0  0  0  0
    1.9120    0.2072    0.9228 O   0  0  0  0  0  0  0  0  0  0  0  0
    1.4740   -1.0839    0.2297 H   0  0  0  0  0  0  0  0  0  0  0  0
    0.5000   -0.2205    1.4468 H   0  0  0  0  0  0  0  0  0  0  0  0
   -0.2743   -0.7393   -1.4840 H   0  0  0  0  0  0  0  0  0  0  0  0
   -0.9894   -1.5397   -0.0751 H   0  0  0  0  0  0  0  0  0  0  0  0
   -1.7409    0.6504    0.6363 H   0  0  0  0  0  0  0  0  0  0  0  0
   -1.0276    1.3306   -0.6403 H   0  0  0  0  0  0  0  0  0  0  0  0
    2.0993    1.0827    0.4591 H   0  0  0  0  0  0  0  0  0  0  0  0
    5.3333   -1.5774   -2.5449 H   0  0  0  0  0  0  0  0  0  0  0  0
    3.3883   -1.8464   -4.0294 H   0  0  0  0  0  0  0  0  0  0  0  0
    1.1048   -1.4840   -3.1848 H   0  0  0  0  0  0  0  0  0  0  0  0
    4.6834   -2.3421    1.5387 H   0  0  0  0  0  0  0  0  0  0  0  0
    6.6756   -2.1347    2.9789 H   0  0  0  0  0  0  0  0  0  0  0  0
    8.5032   -0.5864    2.3701 H   0  0  0  0  0  0  0  0  0  0  0  0
    6.3268    0.5826   -1.1632 H   0  0  0  0  0  0  0  0  0  0  0  0
   10.2428    1.7301    0.6095 H   0  0  0  0  0  0  0  0  0  0  0  0
    1.6810   -0.3862    1.0296 H   0  0  0  0  0  0  0  0  0  0  0  0
   -0.3018   -0.7739   -1.4871 H   0  0  0  0  0  0  0  0  0  0  0  0
   -0.2419    0.0485    3.4018 H   0  0  0  0  0  0  0  0  0  0  0  0
   -1.3178    1.3661    3.9271 H   0  0  0  0  0  0  0  0  0  0  0  0
    0.0206    1.7071    2.8018 H   0  0  0  0  0  0  0  0  0  0  0  0
   -4.5434   -0.1714   -1.7512 H   0  0  0  0  0  0  0  0  0  0  0  0
   -7.6041    1.8095    1.6018 H   0  0  0  0  0  0  0  0  0  0  0  0
   -5.2457    1.5422    2.1454 H   0  0  0  0  0  0  0  0  0  0  0  0
   -9.0371    1.8395   -1.5373 H   0  0  0  0  0  0  0  0  0  0  0  0
   -9.4421    1.5863    0.1634 H   0  0  0  0  0  0  0  0  0  0  0  0
   -9.3714    0.1947   -0.9206 H   0  0  0  0  0  0  0  0  0  0  0  0
   -6.2219   -0.4096   -3.3029 H   0  0  0  0  0  0  0  0  0  0  0  0
   -7.7732   -0.8433   -2.5758 H   0  0  0  0  0  0  0  0  0  0  0  0
   -7.5027    0.8013   -3.2235 H   0  0  0  0  0  0  0  0  0  0  0  0
    0.7917   -1.3136    0.1273 H   0  0  0  0  0  0  0  0  0  0  0  0
    0.2487   -0.6930    1.6968 H   0  0  0  0  0  0  0  0  0  0  0  0
    0.1190    0.8762   -0.9431 H   0  0  0  0  0  0  0  0  0  0  0  0
   -0.4185    1.4765    0.6090 H   0  0  0  0  0  0  0  0  0  0  0  0
   -2.0653   -0.2644    0.6637 H   0  0  0  0  0  0  0  0  0  0  0  0
   -1.5488   -0.8793   -0.7542 H   0  0  0  0  0  0  0  0  0  0  0  0
    2.2695    0.4425    0.0491 H   0  0  0  0  0  0  0  0  0  0  0  0
  4  1  1  0
  1  2  1  0
  2  3  1  0
 10 20  1  0
  9 21  1  0
 12 13  2  0
 21 22  1  0
  8  9  2  0
 22 23  2  0
 23 24  1  0
 13 14  1  0
  6  7  2  0
 14 15  2  0
  9 10  1  0
 24 25  1  0
 25 26  1  0
 26 27  2  0
 27 23  1  0
 15 16  1  0
 27 28  1  0
 16 11  2  0
 24 29  2  0
  5 11  1  0
 25 30  1  0
 10  5  2  0
 30 31  2  0
 15 17  1  0
 31 32  1  0
  5  6  1  0
 32 33  2  0
  7  8  1  0
 33 34  1  0
 17 18  1  0
 34 35  2  0
 35 30  1  0
 17 19  2  0
 33 36  1  0
 11 12  1  0
 32 37  1  0
 41 38  1  0
 38 39  1  0
 39 40  1  0
  1 42  1  0
  1 43  1  0
  2 44  1  0
  2 45  1  0
  3 46  1  0
  3 47  1  0
  4 48  1  0
  6 49  1  0
  7 50  1  0
  8 51  1  0
 12 52  1  0
 13 53  1  0
 14 54  1  0
 16 55  1  0
 18 56  1  0
 20 57  1  0
 21 58  1  0
 28 59  1  0
 28 60  1  0
 28 61  1  0
 31 62  1  0
 34 63  1  0
 35 64  1  0
 36 65  1  0
 36 66  1  0
 36 67  1  0
 37 68  1  0
 37 69  1  0
 37 70  1  0
 38 71  1  0
 38 72  1  0
 39 73  1  0
 39 74  1  0
 40 75  1  0
 40 76  1  0
 41 77  1  0
M  END
$$$$
