
     RDKit          3D

 77 78  0  0  0  0  0  0  0  0999 V2000
   -0.7162   -0.7780    0.2432 C   0  0  0  0  0  0  0  0  0  0  0  0
    0.1585    0.4727    0.3681 C   0  0  0  0  0  0  0  0  0  0  0  0
    0.9559    0.6557   -0.8548 N   0  0  0  0  0  0  0  0  0  0  0  0
   -1.4761   -0.7065   -0.9610 O   0  0  0  0  0  0  0  0  0  0  0  0
    4.0517    0.1649    1.9844 C   0  0  0  0  0  0  0  0  0  0  0  0
    3.9177    0.7647    3.2503 C   0  0  0  0  0  0  0  0  0  0  0  0
    2.6654    0.9490    3.8395 C   0  0  0  0  0  0  0  0  0  0  0  0
    1.5105    0.5492    3.1656 C   0  0  0  0  0  0  0  0  0  0  0  0
    1.5868   -0.0108    1.8837 C   0  0  0  0  0  0  0  0  0  0  0  0
    2.8670   -0.2180    1.3247 C   0  0  0  0  0  0  0  0  0  0  0  0
    5.3969   -0.0507    1.4109 C   0  0  0  0  0  0  0  0  0  0  0  0
    6.3944   -0.7120    2.1524 C   0  0  0  0  0  0  0  0  0  0  0  0
    7.6731   -0.9151    1.6286 C   0  0  0  0  0  0  0  0  0  0  0  0
    7.9783   -0.4599    0.3477 C   0  0  0  0  0  0  0  0  0  0  0  0
    7.0062    0.2018   -0.4113 C   0  0  0  0  0  0  0  0  0  0  0  0
    5.7256    0.4045    0.1210 C   0  0  0  0  0  0  0  0  0  0  0  0
    7.3779    0.6677   -1.7699 C   0  0  0  0  0  0  0  0  0  0  0  0
    6.4054    1.3742   -2.3747 O   0  0  0  0  0  0  0  0  0  0  0  0
    8.4456    0.4714   -2.3207 O   0  0  0  0  0  0  0  0  0  0  0  0
    2.9527   -0.8534    0.1058 O   0  0  0  0  0  0  0  0  0  0  0  0
    0.3869   -0.4279    1.2496 N   0  0  0  0  0  0  0  0  0  0  0  0
    0.3606   -0.5947   -0.1070 N   0  0  0  0  0  0  0  0  0  0  0  0
   -0.8096   -0.5122   -0.6656 C   0  0  0  0  0  0  0  0  0  0  0  0
   -2.1527   -0.2444   -0.0608 C   0  0  0  0  0  0  0  0  0  0  0  0
   -2.9903   -0.3098   -1.1694 N   0  0  0  0  0  0  0  0  0  0  0  0
   -2.3261   -0.5613   -2.3861 N   0  0  0  0  0  0  0  0  0  0  0  0
   -1.0580   -0.6739   -2.1209 C   0  0  0  0  0  0  0  0  0  0  0  0
    0.0351   -0.9548   -3.0817 C   0  0  0  0  0  0  0  0  0  0  0  0
   -2.3130   -0.0257    1.1236 O   0  0  0  0  0  0  0  0  0  0  0  0
   -4.4012   -0.1671   -1.1903 C   0  0  0  0  0  0  0  0  0  0  0  0
   -5.1398    0.0544   -0.0192 C   0  0  0  0  0  0  0  0  0  0  0  0
   -6.5449    0.1714   -0.0413 C   0  0  0  0  0  0  0  0  0  0  0  0
   -7.2279    0.0939   -1.2693 C   0  0  0  0  0  0  0  0  0  0  0  0
   -6.4941   -0.1317   -2.4413 C   0  0  0  0  0  0  0  0  0  0  0  0
   -5.1012   -0.2586   -2.4005 C   0  0  0  0  0  0  0  0  0  0  0  0
   -8.7246    0.2055   -1.3503 C   0  0  0  0  0  0  0  0  0  0  0  0
   -7.2768    0.4091    1.2537 C   0  0  0  0  0  0  0  0  0  0  0  0
    0.7067    0.4322   -0.5007 C   0  0  0  0  0  0  0  0  0  0  0  0
   -0.5762    0.4678    0.3373 C   0  0  0  0  0  0  0  0  0  0  0  0
   -1.3076   -0.7995    0.2589 N   0  0  0  0  0  0  0  0  0  0  0  0
    1.5351   -0.6578   -0.0956 O   0  0  0  0  0  0  0  0  0  0  0  0
   -1.4069   -0.8566    1.0880 H   0  0  0  0  0  0  0  0  0  0  0  0
   -0.1042   -1.6852    0.2048 H   0  0  0  0  0  0  0  0  0  0  0  0
   -0.4831    1.3540    0.4866 H   0  0  0  0  0  0  0  0  0  0  0  0
    0.8134    0.3990    1.2425 H   0  0  0  0  0  0  0  0  0  0  0  0
    1.6306   -0.1053   -0.9300 H   0  0  0  0  0  0  0  0  0  0  0  0
    1.5098    1.5076   -0.7587 H   0  0  0  0  0  0  0  0  0  0  0  0
   -0.8817   -0.2575   -1.5967 H   0  0  0  0  0  0  0  0  0  0  0  0
    4.8011    1.0943    3.7946 H   0  0  0  0  0  0  0  0  0  0  0  0
    2.5928    1.3991    4.8270 H   0  0  0  0  0  0  0  0  0  0  0  0
    0.5482    0.6898    3.6513 H   0  0  0  0  0  0  0  0  0  0  0  0
    6.1718   -1.0923    3.1493 H   0  0  0  0  0  0  0  0  0  0  0  0
    8.4239   -1.4363    2.2174 H   0  0  0  0  0  0  0  0  0  0  0  0
    8.9739   -0.6250   -0.0593 H   0  0  0  0  0  0  0  0  0  0  0  0
    4.9681    0.9128   -0.4724 H   0  0  0  0  0  0  0  0  0  0  0  0
    6.7955    1.6018   -3.2460 H   0  0  0  0  0  0  0  0  0  0  0  0
    2.0093   -0.9966   -0.1319 H   0  0  0  0  0  0  0  0  0  0  0  0
   -0.4530   -0.0691    1.7238 H   0  0  0  0  0  0  0  0  0  0  0  0
    0.3845   -1.9816   -2.9431 H   0  0  0  0  0  0  0  0  0  0  0  0
   -0.3283   -0.8328   -4.1063 H   0  0  0  0  0  0  0  0  0  0  0  0
    0.8664   -0.2641   -2.9157 H   0  0  0  0  0  0  0  0  0  0  0  0
   -4.6408    0.1331    0.9431 H   0  0  0  0  0  0  0  0  0  0  0  0
   -7.0014   -0.2138   -3.4016 H   0  0  0  0  0  0  0  0  0  0  0  0
   -4.5731   -0.4320   -3.3364 H   0  0  0  0  0  0  0  0  0  0  0  0
   -9.0793    1.0721   -0.7835 H   0  0  0  0  0  0  0  0  0  0  0  0
   -9.1912   -0.7047   -0.9600 H   0  0  0  0  0  0  0  0  0  0  0  0
   -9.0606    0.3411   -2.3831 H   0  0  0  0  0  0  0  0  0  0  0  0
   -6.6301    0.2203    2.1190 H   0  0  0  0  0  0  0  0  0  0  0  0
   -8.1338   -0.2660    1.3456 H   0  0  0  0  0  0  0  0  0  0  0  0
   -7.6214    1.4487    1.3067 H   0  0  0  0  0  0  0  0  0  0  0  0
    1.2713    1.3622   -0.3802 H   0  0  0  0  0  0  0  0  0  0  0  0
    0.4772    0.3027   -1.5636 H   0  0  0  0  0  0  0  0  0  0  0  0
   -1.2201    1.2894    0.0102 H   0  0  0  0  0  0  0  0  0  0  0  0
   -0.3180    0.6381    1.3874 H   0  0  0  0  0  0  0  0  0  0  0  0
   -0.6304   -1.5576    0.3852 H   0  0  0  0  0  0  0  0  0  0  0  0
   -1.6436   -0.9280   -0.6957 H   0  0  0  0  0  0  0  0  0  0  0  0
    1.7057   -0.5496    0.8568 H   0  0  0  0  0  0  0  0  0  0  0  0
  4  1  1  0
  1  2  1  0
  2  3  1  0
 10 20  1  0
  9 21  1  0
 12 13  2  0
 21 22  1  0
  8  9  2  0
 22 23  2  0
 23 24  1  0
 13 14  1  0
  6  7  2  0
 14 15  2  0
  9 10  1  0
 24 25  1  0
 25 26  1  0
 26 27  2  0
 27 23  1  0
 15 16  1  0
 27 28  1  0
 16 11  2  0
 24 29  2  0
  5 11  1  0
 25 30  1  0
 10  5  2  0
 30 31  2  0
 15 17  1  0
 31 32  1  0
  5  6  1  0
 32 33  2  0
  7  8  1  0
 33 34  1  0
 17 18  1  0
 34 35  2  0
 35 30  1  0
 17 19  2  0
 33 36  1  0
 11 12  1  0
 32 37  1  0
 41 38  1  0
 38 39  1  0
 39 40  1  0
  1 42  1  0
  1 43  1  0
  2 44  1  0
  2 45  1  0
  3 46  1  0
  3 47  1  0
  4 48  1  0
  6 49  1  0
  7 50  1  0
  8 51  1  0
 12 52  1  0
 13 53  1  0
 14 54  1  0
 16 55  1  0
 18 56  1  0
 20 57  1  0
 21 58  1  0
 28 59  1  0
 28 60  1  0
 28 61  1  0
 31 62  1  0
 34 63  1  0
 35 64  1  0
 36 65  1  0
 36 66  1  0
 36 67  1  0
 37 68  1  0
 37 69  1  0
 37 70  1  0
 38 71  1  0
 38 72  1  0
 39 73  1  0
 39 74  1  0
 40 75  1  0
 40 76  1  0
 41 77  1  0
M  END
$$$$
