
     RDKit          3D

 29 31  0  0  0  0  0  0  0  0999 V2000
    5.3478    0.6455    0.8264 C   0  0  0  0  0  0  0  0  0  0  0  0
    3.9291    0.2011    1.1229 C   0  0  0  0  0  0  0  0  0  0  0  0
    3.2885   -0.3044   -0.1419 C   0  0  0  0  0  0  0  0  0  0  0  0
    1.8668   -0.7757    0.0395 C   0  0  0  0  0  0  0  0  0  0  0  0
    1.2804   -1.2652   -1.2625 C   0  0  0  0  0  0  0  0  0  0  0  0
   -0.1300   -1.7385   -1.1603 C   0  0  0  0  0  0  0  0  0  0  0  0
   -1.8281   -0.0600   -1.6757 C   0  0  0  0  0  0  0  0  0  0  0  0
   -2.6958    0.9428   -1.2870 C   0  0  0  0  0  0  0  0  0  0  0  0
   -2.0253    0.6865    1.0250 C   0  0  0  0  0  0  0  0  0  0  0  0
   -1.0593   -0.6813   -0.6802 C   0  0  0  0  0  0  0  0  0  0  0  0
   -2.7846    1.3037    0.0544 C   0  0  0  0  0  0  0  0  0  0  0  0
   -1.1550   -0.3169    0.6449 C   0  0  0  0  0  0  0  0  0  0  0  0
   -3.6648    2.3246    0.4696 O   0  0  0  0  0  0  0  0  0  0  0  0
   -0.3697   -0.9623    1.6219 O   0  0  0  0  0  0  0  0  0  0  0  0
   -3.5713    0.7110   -0.0254 C   0  0  0  0  0  0  0  0  0  0  0  0
    3.6071    0.2712   -0.0393 C   0  0  0  0  0  0  0  0  0  0  0  0
   -3.6401   -0.6596    0.0627 C   0  0  0  0  0  0  0  0  0  0  0  0
    3.5148   -1.1030    0.0491 C   0  0  0  0  0  0  0  0  0  0  0  0
   -2.3328    1.3364   -0.0726 C   0  0  0  0  0  0  0  0  0  0  0  0
    2.4630    1.0369   -0.0816 C   0  0  0  0  0  0  0  0  0  0  0  0
   -2.4562   -1.3625    0.1007 C   0  0  0  0  0  0  0  0  0  0  0  0
    2.2885   -1.7289    0.0964 C   0  0  0  0  0  0  0  0  0  0  0  0
   -1.1643    0.6023   -0.0325 C   0  0  0  0  0  0  0  0  0  0  0  0
    1.2343    0.4077   -0.0341 C   0  0  0  0  0  0  0  0  0  0  0  0
   -1.2110   -0.7888    0.0567 C   0  0  0  0  0  0  0  0  0  0  0  0
    1.1336   -0.9791    0.0552 C   0  0  0  0  0  0  0  0  0  0  0  0
    0.0896    1.1853   -0.0772 C   0  0  0  0  0  0  0  0  0  0  0  0
    0.1372    2.6071   -0.1684 N   0  0  0  0  0  0  0  0  0  0  0  0
   -0.0925   -1.5359    0.0980 N   0  0  0  0  0  0  0  0  0  0  0  0
  2  1  1  0
  3  2  1  0
  4  3  1  0
  5  4  1  0
  6  5  1  0
  8  7  2  0
 10  6  1  0
 10  7  1  0
 11  8  1  0
 11  9  2  0
 12  9  1  0
 12 10  2  0
 13 11  1  0
 14 12  1  0
 17 15  2  0
 18 16  1  0
 19 15  1  0
 20 16  2  0
 21 17  1  0
 22 18  2  0
 23 19  2  0
 24 20  1  0
 25 21  2  0
 25 23  1  0
 26 22  1  0
 26 24  1  0
 27 23  1  0
 27 24  2  0
 28 27  1  0
 29 25  1  0
 29 26  2  0
M  END
