
     RDKit          3D

 57 59  0  0  0  0  0  0  0  0999 V2000
   -4.8151    0.3259   -0.8320 C   0  0  0  0  0  0  0  0  0  0  0  0
   -4.3102    0.0463    0.5751 C   0  0  0  0  0  0  0  0  0  0  0  0
   -2.8916   -0.5260    0.6130 C   0  0  0  0  0  0  0  0  0  0  0  0
   -1.8285    0.4551    0.1139 C   0  0  0  0  0  0  0  0  0  0  0  0
   -0.4211   -0.1254    0.2719 C   0  0  0  0  0  0  0  0  0  0  0  0
    0.6422    0.8535   -0.2324 C   0  0  0  0  0  0  0  0  0  0  0  0
    2.6381   -0.3215   -1.1937 C   0  0  0  0  0  0  0  0  0  0  0  0
    3.9238   -0.8596   -1.1072 C   0  0  0  0  0  0  0  0  0  0  0  0
    4.0464   -0.1923    1.2087 C   0  0  0  0  0  0  0  0  0  0  0  0
    2.0369    0.2952   -0.0822 C   0  0  0  0  0  0  0  0  0  0  0  0
    4.6185   -0.7893    0.0922 C   0  0  0  0  0  0  0  0  0  0  0  0
    2.7604    0.3416    1.1182 C   0  0  0  0  0  0  0  0  0  0  0  0
    5.8716   -1.3254    0.1352 O   0  0  0  0  0  0  0  0  0  0  0  0
    2.2707    0.8998    2.2658 O   0  0  0  0  0  0  0  0  0  0  0  0
   -3.6204    0.5894   -0.4193 C   0  0  0  0  0  0  0  0  0  0  0  0
    3.6377   -0.1010    0.5443 C   0  0  0  0  0  0  0  0  0  0  0  0
   -3.6506   -0.7936   -0.4973 C   0  0  0  0  0  0  0  0  0  0  0  0
    3.4303   -1.4671    0.4427 C   0  0  0  0  0  0  0  0  0  0  0  0
   -2.3957    1.2412   -0.2739 C   0  0  0  0  0  0  0  0  0  0  0  0
    2.5599    0.7699    0.3840 C   0  0  0  0  0  0  0  0  0  0  0  0
   -2.4570   -1.5121   -0.4170 C   0  0  0  0  0  0  0  0  0  0  0  0
    2.1449   -1.9498    0.1940 C   0  0  0  0  0  0  0  0  0  0  0  0
   -1.1742    0.5209   -0.2064 C   0  0  0  0  0  0  0  0  0  0  0  0
    1.2509    0.2902    0.1156 C   0  0  0  0  0  0  0  0  0  0  0  0
   -1.2269   -0.8851   -0.2649 C   0  0  0  0  0  0  0  0  0  0  0  0
    1.0555   -1.1022    0.0381 C   0  0  0  0  0  0  0  0  0  0  0  0
    0.1121    1.1183   -0.0902 C   0  0  0  0  0  0  0  0  0  0  0  0
    0.2329    2.5339    0.0136 N   0  0  0  0  0  0  0  0  0  0  0  0
   -0.1416   -1.6633   -0.1719 N   0  0  0  0  0  0  0  0  0  0  0  0
   -4.7485   -0.5690   -1.4587 H   0  0  0  0  0  0  0  0  0  0  0  0
   -4.2458    1.1278   -1.3109 H   0  0  0  0  0  0  0  0  0  0  0  0
   -5.8636    0.6390   -0.7991 H   0  0  0  0  0  0  0  0  0  0  0  0
   -4.9872   -0.6732    1.0510 H   0  0  0  0  0  0  0  0  0  0  0  0
   -4.3577    0.9663    1.1693 H   0  0  0  0  0  0  0  0  0  0  0  0
   -2.6632   -0.8057    1.6490 H   0  0  0  0  0  0  0  0  0  0  0  0
   -2.8513   -1.4484    0.0209 H   0  0  0  0  0  0  0  0  0  0  0  0
   -1.9025    1.3943    0.6752 H   0  0  0  0  0  0  0  0  0  0  0  0
   -2.0020    0.6916   -0.9418 H   0  0  0  0  0  0  0  0  0  0  0  0
   -0.3491   -1.0691   -0.2838 H   0  0  0  0  0  0  0  0  0  0  0  0
   -0.2418   -0.3675    1.3267 H   0  0  0  0  0  0  0  0  0  0  0  0
    0.5689    1.8134    0.2931 H   0  0  0  0  0  0  0  0  0  0  0  0
    0.4538    1.0890   -1.2881 H   0  0  0  0  0  0  0  0  0  0  0  0
    2.1068   -0.3878   -2.1410 H   0  0  0  0  0  0  0  0  0  0  0  0
    4.3798   -1.3316   -1.9727 H   0  0  0  0  0  0  0  0  0  0  0  0
    4.5777   -0.1350    2.1528 H   0  0  0  0  0  0  0  0  0  0  0  0
    6.2273   -1.1983    1.0303 H   0  0  0  0  0  0  0  0  0  0  0  0
    1.3565    1.1865    2.1217 H   0  0  0  0  0  0  0  0  0  0  0  0
   -4.5429    1.1619   -0.4662 H   0  0  0  0  0  0  0  0  0  0  0  0
    4.6306    0.2894    0.7517 H   0  0  0  0  0  0  0  0  0  0  0  0
   -4.5949   -1.3190   -0.6102 H   0  0  0  0  0  0  0  0  0  0  0  0
    4.2574   -2.1610    0.5650 H   0  0  0  0  0  0  0  0  0  0  0  0
   -2.4072    2.3244   -0.1965 H   0  0  0  0  0  0  0  0  0  0  0  0
    2.7514    1.8338    0.4884 H   0  0  0  0  0  0  0  0  0  0  0  0
   -2.4869   -2.5985   -0.4659 H   0  0  0  0  0  0  0  0  0  0  0  0
    1.9846   -3.0238    0.1278 H   0  0  0  0  0  0  0  0  0  0  0  0
    1.1448    2.8736   -0.2726 H   0  0  0  0  0  0  0  0  0  0  0  0
   -0.4945    3.0295   -0.4904 H   0  0  0  0  0  0  0  0  0  0  0  0
  2  1  1  0
  3  2  1  0
  4  3  1  0
  5  4  1  0
  6  5  1  0
  8  7  2  0
 10  6  1  0
 10  7  1  0
 11  8  1  0
 11  9  2  0
 12  9  1  0
 12 10  2  0
 13 11  1  0
 14 12  1  0
 17 15  2  0
 18 16  1  0
 19 15  1  0
 20 16  2  0
 21 17  1  0
 22 18  2  0
 23 19  2  0
 24 20  1  0
 25 21  2  0
 25 23  1  0
 26 22  1  0
 26 24  1  0
 27 23  1  0
 27 24  2  0
 28 27  1  0
 29 25  1  0
 29 26  2  0
  1 30  1  0
  1 31  1  0
  1 32  1  0
  2 33  1  0
  2 34  1  0
  3 35  1  0
  3 36  1  0
  4 37  1  0
  4 38  1  0
  5 39  1  0
  5 40  1  0
  6 41  1  0
  6 42  1  0
  7 43  1  0
  8 44  1  0
  9 45  1  0
 13 46  1  0
 14 47  1  0
 15 48  1  0
 16 49  1  0
 17 50  1  0
 18 51  1  0
 19 52  1  0
 20 53  1  0
 21 54  1  0
 22 55  1  0
 28 56  1  0
 28 57  1  0
M  END
$$$$
