
     RDKit          3D

104107  0  0  0  0  0  0  0  0999 V2000
    0.0306    0.7973    0.0766 C   0  0  0  0  0  0  0  0  0  0  0  0
   -0.2707    2.0883   -0.3232 N   0  0  0  0  0  0  0  0  0  0  0  0
    1.9150    1.7983   -0.7327 N   0  0  0  0  0  0  0  0  0  0  0  0
    1.3862    0.6617   -0.1766 C   0  0  0  0  0  0  0  0  0  0  0  0
    0.9124    2.6455   -0.8046 C   0  0  0  0  0  0  0  0  0  0  0  0
   -0.9773   -0.1640    0.6226 C   0  0  0  0  0  0  0  0  0  0  0  0
   -1.9170   -0.7009   -0.4607 C   0  0  0  0  0  0  0  0  0  0  0  0
   -1.4782    2.7912   -0.2851 C   0  0  0  0  0  0  0  0  0  0  0  0
    0.8590    3.9864   -1.2767 C   0  0  0  0  0  0  0  0  0  0  0  0
    2.1826   -0.5214    0.0720 C   0  0  0  0  0  0  0  0  0  0  0  0
   -1.5294    4.0628   -0.7276 C   0  0  0  0  0  0  0  0  0  0  0  0
   -0.3020    4.6674   -1.2391 C   0  0  0  0  0  0  0  0  0  0  0  0
   -2.7526   -1.7591   -0.0981 N   0  0  0  0  0  0  0  0  0  0  0  0
   -1.9555   -0.2133   -1.5927 O   0  0  0  0  0  0  0  0  0  0  0  0
    2.7899   -1.1826   -0.9986 C   0  0  0  0  0  0  0  0  0  0  0  0
    2.3699   -1.0041    1.3716 C   0  0  0  0  0  0  0  0  0  0  0  0
    3.5546   -2.3314   -0.7766 C   0  0  0  0  0  0  0  0  0  0  0  0
    3.1388   -2.1508    1.5940 C   0  0  0  0  0  0  0  0  0  0  0  0
    3.7224   -2.8329    0.5195 C   0  0  0  0  0  0  0  0  0  0  0  0
   -2.7754    4.8916   -0.7340 C   0  0  0  0  0  0  0  0  0  0  0  0
   -2.9613   -2.2316    1.2634 C   0  0  0  0  0  0  0  0  0  0  0  0
   -3.6765   -2.2773   -1.0943 C   0  0  0  0  0  0  0  0  0  0  0  0
    4.5718   -4.0451    0.7629 C   0  0  0  0  0  0  0  0  0  0  0  0
   -0.2420    0.7314   -0.6193 C   0  0  0  0  0  0  0  0  0  0  0  0
   -0.7311    2.0256   -0.6595 N   0  0  0  0  0  0  0  0  0  0  0  0
    1.4994    2.2014   -0.5233 N   0  0  0  0  0  0  0  0  0  0  0  0
    1.1323    0.8809   -0.5350 C   0  0  0  0  0  0  0  0  0  0  0  0
    0.3735    2.8735   -0.6114 C   0  0  0  0  0  0  0  0  0  0  0  0
   -1.1047   -0.4894   -0.6337 C   0  0  0  0  0  0  0  0  0  0  0  0
   -1.7441   -0.7589    0.7313 C   0  0  0  0  0  0  0  0  0  0  0  0
   -2.0432    2.4974   -0.7431 C   0  0  0  0  0  0  0  0  0  0  0  0
    0.1287    4.2739   -0.6646 C   0  0  0  0  0  0  0  0  0  0  0  0
    2.0993   -0.1903   -0.4389 C   0  0  0  0  0  0  0  0  0  0  0  0
   -2.2777    3.8235   -0.7900 C   0  0  0  0  0  0  0  0  0  0  0  0
   -1.1347    4.7322   -0.7505 C   0  0  0  0  0  0  0  0  0  0  0  0
   -2.2595   -2.0397    0.9418 N   0  0  0  0  0  0  0  0  0  0  0  0
   -1.8373    0.1222    1.5886 O   0  0  0  0  0  0  0  0  0  0  0  0
    2.8858   -0.3094    0.7093 C   0  0  0  0  0  0  0  0  0  0  0  0
    2.2699   -1.0997   -1.4872 C   0  0  0  0  0  0  0  0  0  0  0  0
    3.8223   -1.3400    0.8171 C   0  0  0  0  0  0  0  0  0  0  0  0
    3.2080   -2.1298   -1.3799 C   0  0  0  0  0  0  0  0  0  0  0  0
    3.9970   -2.2525   -0.2302 C   0  0  0  0  0  0  0  0  0  0  0  0
   -3.6463    4.4223   -0.8686 C   0  0  0  0  0  0  0  0  0  0  0  0
   -2.1384   -3.1377   -0.0043 C   0  0  0  0  0  0  0  0  0  0  0  0
   -2.7238   -2.3948    2.2737 C   0  0  0  0  0  0  0  0  0  0  0  0
    4.9860   -3.3724   -0.0982 C   0  0  0  0  0  0  0  0  0  0  0  0
    2.4406   -0.3594    1.1256 O   0  0  0  0  0  0  0  0  0  0  0  0
    2.5434   -0.3959   -1.1090 O   0  0  0  0  0  0  0  0  0  0  0  0
   -2.4829   -0.0572   -1.0729 O   0  0  0  0  0  0  0  0  0  0  0  0
   -2.4746    0.7679    1.0034 O   0  0  0  0  0  0  0  0  0  0  0  0
    0.0422   -1.5682   -1.1485 O   0  0  0  0  0  0  0  0  0  0  0  0
    0.1033    1.5646    0.8303 O   0  0  0  0  0  0  0  0  0  0  0  0
    1.8701   -0.4617   -0.0889 C   0  0  0  0  0  0  0  0  0  0  0  0
    0.3686   -0.6924   -0.0576 C   0  0  1  0  0  0  0  0  0  0  0  0
   -0.3547    0.6502   -0.1803 C   0  0  1  0  0  0  0  0  0  0  0  0
   -1.8523    0.4501   -0.0012 C   0  0  0  0  0  0  0  0  0  0  0  0
   -0.4565   -1.0118    1.0771 H   0  0  0  0  0  0  0  0  0  0  0  0
   -1.5760    0.3271    1.3975 H   0  0  0  0  0  0  0  0  0  0  0  0
   -2.3458    2.2687    0.0952 H   0  0  0  0  0  0  0  0  0  0  0  0
    1.7692    4.4332   -1.6603 H   0  0  0  0  0  0  0  0  0  0  0  0
   -0.3442    5.6911   -1.6013 H   0  0  0  0  0  0  0  0  0  0  0  0
    2.6672   -0.8030   -2.0105 H   0  0  0  0  0  0  0  0  0  0  0  0
    1.9344   -0.4812    2.2196 H   0  0  0  0  0  0  0  0  0  0  0  0
    4.0224   -2.8277   -1.6236 H   0  0  0  0  0  0  0  0  0  0  0  0
    3.2845   -2.5037    2.6122 H   0  0  0  0  0  0  0  0  0  0  0  0
   -3.6244    4.3486   -0.3033 H   0  0  0  0  0  0  0  0  0  0  0  0
   -3.0438    5.1716   -1.7585 H   0  0  0  0  0  0  0  0  0  0  0  0
   -2.6339    5.8075   -0.1486 H   0  0  0  0  0  0  0  0  0  0  0  0
   -2.2178   -1.8559    1.9673 H   0  0  0  0  0  0  0  0  0  0  0  0
   -3.9507   -1.9002    1.5951 H   0  0  0  0  0  0  0  0  0  0  0  0
   -2.9245   -3.3254    1.2652 H   0  0  0  0  0  0  0  0  0  0  0  0
   -4.6637   -1.8419   -0.9122 H   0  0  0  0  0  0  0  0  0  0  0  0
   -3.3611   -2.0329   -2.1122 H   0  0  0  0  0  0  0  0  0  0  0  0
   -3.7335   -3.3662   -1.0002 H   0  0  0  0  0  0  0  0  0  0  0  0
    5.5979   -3.7417    0.9866 H   0  0  0  0  0  0  0  0  0  0  0  0
    4.1835   -4.6297    1.6030 H   0  0  0  0  0  0  0  0  0  0  0  0
    4.5798   -4.7023   -0.1125 H   0  0  0  0  0  0  0  0  0  0  0  0
   -1.9035   -0.3864   -1.3757 H   0  0  0  0  0  0  0  0  0  0  0  0
   -0.4927   -1.3483   -0.9207 H   0  0  0  0  0  0  0  0  0  0  0  0
   -2.8379    1.7628   -0.7530 H   0  0  0  0  0  0  0  0  0  0  0  0
    0.9791    4.9456   -0.6325 H   0  0  0  0  0  0  0  0  0  0  0  0
   -1.3236    5.8016   -0.7871 H   0  0  0  0  0  0  0  0  0  0  0  0
    2.7676    0.4029    1.5235 H   0  0  0  0  0  0  0  0  0  0  0  0
    1.6847   -1.0029   -2.3974 H   0  0  0  0  0  0  0  0  0  0  0  0
    4.4184   -1.4204    1.7234 H   0  0  0  0  0  0  0  0  0  0  0  0
    3.3281   -2.8258   -2.2065 H   0  0  0  0  0  0  0  0  0  0  0  0
   -4.4254    3.6542   -0.8433 H   0  0  0  0  0  0  0  0  0  0  0  0
   -3.7664    4.9864   -1.7990 H   0  0  0  0  0  0  0  0  0  0  0  0
   -3.8192    5.0990   -0.0267 H   0  0  0  0  0  0  0  0  0  0  0  0
   -1.1896   -3.6502    0.1753 H   0  0  0  0  0  0  0  0  0  0  0  0
   -2.1699   -2.7801   -1.0358 H   0  0  0  0  0  0  0  0  0  0  0  0
   -2.9665   -3.8372    0.1398 H   0  0  0  0  0  0  0  0  0  0  0  0
   -2.7976   -1.5301    2.9364 H   0  0  0  0  0  0  0  0  0  0  0  0
   -3.7119   -2.8568    2.1929 H   0  0  0  0  0  0  0  0  0  0  0  0
   -2.0202   -3.1118    2.7085 H   0  0  0  0  0  0  0  0  0  0  0  0
    4.5383   -4.2045    0.4532 H   0  0  0  0  0  0  0  0  0  0  0  0
    5.8833   -3.0349    0.4310 H   0  0  0  0  0  0  0  0  0  0  0  0
    5.3054   -3.7326   -1.0811 H   0  0  0  0  0  0  0  0  0  0  0  0
    3.3889   -0.1934    0.9420 H   0  0  0  0  0  0  0  0  0  0  0  0
   -3.4223   -0.1360   -0.8046 H   0  0  0  0  0  0  0  0  0  0  0  0
    0.5736   -1.2761   -1.9171 H   0  0  0  0  0  0  0  0  0  0  0  0
   -0.6694    1.7956    1.3903 H   0  0  0  0  0  0  0  0  0  0  0  0
    0.1096   -1.2136    0.8709 H   0  0  0  0  0  0  0  0  0  0  0  0
   -0.1841    1.1255   -1.1523 H   0  0  0  0  0  0  0  0  0  0  0  0
 10  4  1  0
 11  8  2  0
 12 11  1  0
 13  7  1  0
 14  7  2  0
 15 10  2  0
 16 10  1  0
 17 15  1  0
 18 16  2  0
 19 18  1  0
 20 11  1  0
 21 13  1  0
 22 13  1  0
 23 19  1  0
  3  5  2  0
  9 12  2  0
 17 19  2  0
  2  1  1  0
  3  4  1  0
  4  1  2  0
  5  2  1  0
  6  1  1  0
  7  6  1  0
  8  2  1  0
  9  5  1  0
 33 27  1  0
 34 31  2  0
 35 34  1  0
 36 30  1  0
 37 30  2  0
 38 33  2  0
 39 33  1  0
 40 38  1  0
 41 39  2  0
 42 41  1  0
 43 34  1  0
 44 36  1  0
 45 36  1  0
 46 42  1  0
 26 28  2  0
 32 35  2  0
 40 42  2  0
 25 24  1  0
 26 27  1  0
 27 24  2  0
 28 25  1  0
 29 24  1  0
 30 29  1  0
 31 25  1  0
 32 28  1  0
 53 48  2  0
 54 51  1  0
 55 52  1  0
 53 47  1  0
 55 56  1  0
 54 55  1  0
 56 49  1  0
 53 54  1  0
 56 50  2  0
  6 57  1  0
  6 58  1  0
  8 59  1  0
  9 60  1  0
 12 61  1  0
 15 62  1  0
 16 63  1  0
 17 64  1  0
 18 65  1  0
 20 66  1  0
 20 67  1  0
 20 68  1  0
 21 69  1  0
 21 70  1  0
 21 71  1  0
 22 72  1  0
 22 73  1  0
 22 74  1  0
 23 75  1  0
 23 76  1  0
 23 77  1  0
 29 78  1  0
 29 79  1  0
 31 80  1  0
 32 81  1  0
 35 82  1  0
 38 83  1  0
 39 84  1  0
 40 85  1  0
 41 86  1  0
 43 87  1  0
 43 88  1  0
 43 89  1  0
 44 90  1  0
 44 91  1  0
 44 92  1  0
 45 93  1  0
 45 94  1  0
 45 95  1  0
 46 96  1  0
 46 97  1  0
 46 98  1  0
 47 99  1  0
 49100  1  0
 51101  1  0
 52102  1  0
 54103  1  1
 55104  1  6
M  END
$$$$
