
     RDKit          3D

104107  0  0  0  0  0  0  0  0999 V2000
   -0.0800    0.8732    0.2823 C   0  0  0  0  0  0  0  0  0  0  0  0
   -0.5231    2.1724    0.0988 N   0  0  0  0  0  0  0  0  0  0  0  0
    1.5365    2.0781   -0.7831 N   0  0  0  0  0  0  0  0  0  0  0  0
    1.1707    0.8419   -0.3140 C   0  0  0  0  0  0  0  0  0  0  0  0
    0.5064    2.8589   -0.5409 C   0  0  0  0  0  0  0  0  0  0  0  0
   -0.8455   -0.1797    1.0211 C   0  0  0  0  0  0  0  0  0  0  0  0
   -1.9509   -0.7967    0.1600 C   0  0  0  0  0  0  0  0  0  0  0  0
   -1.7277    2.7807    0.4628 C   0  0  0  0  0  0  0  0  0  0  0  0
    0.2977    4.2384   -0.8226 C   0  0  0  0  0  0  0  0  0  0  0  0
    2.0433   -0.3118   -0.3949 C   0  0  0  0  0  0  0  0  0  0  0  0
   -1.9269    4.0870    0.1982 C   0  0  0  0  0  0  0  0  0  0  0  0
   -0.8615    4.8290   -0.4731 C   0  0  0  0  0  0  0  0  0  0  0  0
   -2.3951   -2.0684    0.5178 N   0  0  0  0  0  0  0  0  0  0  0  0
   -2.4478   -0.1849   -0.7877 O   0  0  0  0  0  0  0  0  0  0  0  0
    3.3483   -0.2309    0.1000 C   0  0  0  0  0  0  0  0  0  0  0  0
    1.6026   -1.5093   -0.9705 C   0  0  0  0  0  0  0  0  0  0  0  0
    4.1936   -1.3432    0.0481 C   0  0  0  0  0  0  0  0  0  0  0  0
    2.4475   -2.6226   -1.0187 C   0  0  0  0  0  0  0  0  0  0  0  0
    3.7441   -2.5518   -0.4978 C   0  0  0  0  0  0  0  0  0  0  0  0
   -3.1852    4.8223    0.5376 C   0  0  0  0  0  0  0  0  0  0  0  0
   -3.3409   -2.7522   -0.3493 C   0  0  0  0  0  0  0  0  0  0  0  0
   -1.9426   -2.8151    1.6829 C   0  0  0  0  0  0  0  0  0  0  0  0
    4.6682   -3.7297   -0.5714 C   0  0  0  0  0  0  0  0  0  0  0  0
    0.0675    0.7818   -0.1127 C   0  0  0  0  0  0  0  0  0  0  0  0
   -0.1995    2.0930    0.2427 N   0  0  0  0  0  0  0  0  0  0  0  0
    1.9998    1.7942    0.5512 N   0  0  0  0  0  0  0  0  0  0  0  0
    1.4195    0.6172    0.1458 C   0  0  0  0  0  0  0  0  0  0  0  0
    1.0129    2.6595    0.6271 C   0  0  0  0  0  0  0  0  0  0  0  0
   -0.9550   -0.1567   -0.6722 C   0  0  0  0  0  0  0  0  0  0  0  0
   -1.9079   -0.6977    0.3967 C   0  0  0  0  0  0  0  0  0  0  0  0
   -1.3991    2.8081    0.2279 C   0  0  0  0  0  0  0  0  0  0  0  0
    1.0016    4.0288    1.0152 C   0  0  0  0  0  0  0  0  0  0  0  0
    2.1840   -0.5992   -0.0524 C   0  0  0  0  0  0  0  0  0  0  0  0
   -1.4115    4.1055    0.5899 C   0  0  0  0  0  0  0  0  0  0  0  0
   -0.1520    4.7242    0.9934 C   0  0  0  0  0  0  0  0  0  0  0  0
   -2.8450   -1.6459   -0.0158 N   0  0  0  0  0  0  0  0  0  0  0  0
   -1.8663   -0.3064    1.5657 O   0  0  0  0  0  0  0  0  0  0  0  0
    1.7763   -1.8113    0.5173 C   0  0  0  0  0  0  0  0  0  0  0  0
    3.3514   -0.5636   -0.8220 C   0  0  0  0  0  0  0  0  0  0  0  0
    2.5107   -2.9800    0.2923 C   0  0  0  0  0  0  0  0  0  0  0  0
    4.0850   -1.7325   -1.0458 C   0  0  0  0  0  0  0  0  0  0  0  0
    3.6750   -2.9485   -0.4854 C   0  0  0  0  0  0  0  0  0  0  0  0
   -2.6468    4.9472    0.6086 C   0  0  0  0  0  0  0  0  0  0  0  0
   -3.0418   -2.0898   -1.3876 C   0  0  0  0  0  0  0  0  0  0  0  0
   -3.8198   -2.1373    0.9468 C   0  0  0  0  0  0  0  0  0  0  0  0
    4.4500   -4.2041   -0.7586 C   0  0  0  0  0  0  0  0  0  0  0  0
    1.0640    1.5987    0.6212 O   0  0  0  0  0  0  0  0  0  0  0  0
    2.7038    0.1250    0.3192 O   0  0  0  0  0  0  0  0  0  0  0  0
   -1.6929    1.2110   -1.2305 O   0  0  0  0  0  0  0  0  0  0  0  0
   -2.1282    0.8511    0.9416 O   0  0  0  0  0  0  0  0  0  0  0  0
    1.0354   -2.0312    0.8548 O   0  0  0  0  0  0  0  0  0  0  0  0
   -0.0347   -0.8024   -1.5513 O   0  0  0  0  0  0  0  0  0  0  0  0
    1.5240    0.3322    0.5549 C   0  0  0  0  0  0  0  0  0  0  0  0
    0.4511   -0.7205    0.8230 C   0  0  1  0  0  0  0  0  0  0  0  0
   -0.6288   -0.6926   -0.2549 C   0  0  1  0  0  0  0  0  0  0  0  0
   -1.5413    0.5168   -0.0754 C   0  0  0  0  0  0  0  0  0  0  0  0
   -1.3042    0.2397    1.9252 H   0  0  0  0  0  0  0  0  0  0  0  0
   -0.1379   -0.9560    1.3369 H   0  0  0  0  0  0  0  0  0  0  0  0
   -2.4757    2.1578    0.9368 H   0  0  0  0  0  0  0  0  0  0  0  0
    1.0854    4.7834   -1.3299 H   0  0  0  0  0  0  0  0  0  0  0  0
   -1.0284    5.8792   -0.6980 H   0  0  0  0  0  0  0  0  0  0  0  0
    3.7087    0.7045    0.5219 H   0  0  0  0  0  0  0  0  0  0  0  0
    0.6039   -1.5804   -1.3968 H   0  0  0  0  0  0  0  0  0  0  0  0
    5.2064   -1.2602    0.4375 H   0  0  0  0  0  0  0  0  0  0  0  0
    2.0902   -3.5405   -1.4807 H   0  0  0  0  0  0  0  0  0  0  0  0
   -3.6432    5.2355   -0.3666 H   0  0  0  0  0  0  0  0  0  0  0  0
   -2.9769    5.6465    1.2275 H   0  0  0  0  0  0  0  0  0  0  0  0
   -3.9223    4.1691    1.0156 H   0  0  0  0  0  0  0  0  0  0  0  0
   -2.9284   -3.7298   -0.6232 H   0  0  0  0  0  0  0  0  0  0  0  0
   -3.5508   -2.1906   -1.2635 H   0  0  0  0  0  0  0  0  0  0  0  0
   -4.2765   -2.8945    0.1998 H   0  0  0  0  0  0  0  0  0  0  0  0
   -2.7930   -3.3496    2.1164 H   0  0  0  0  0  0  0  0  0  0  0  0
   -1.1844   -3.5333    1.3595 H   0  0  0  0  0  0  0  0  0  0  0  0
   -1.5255   -2.1634    2.4518 H   0  0  0  0  0  0  0  0  0  0  0  0
    5.3752   -3.6043   -1.3991 H   0  0  0  0  0  0  0  0  0  0  0  0
    5.2307   -3.8357    0.3633 H   0  0  0  0  0  0  0  0  0  0  0  0
    4.1150   -4.6626   -0.7245 H   0  0  0  0  0  0  0  0  0  0  0  0
   -1.5436    0.3530   -1.4433 H   0  0  0  0  0  0  0  0  0  0  0  0
   -0.4450   -1.0023   -1.1470 H   0  0  0  0  0  0  0  0  0  0  0  0
   -2.2905    2.2765   -0.0754 H   0  0  0  0  0  0  0  0  0  0  0  0
    1.9358    4.4847    1.3218 H   0  0  0  0  0  0  0  0  0  0  0  0
   -0.1635    5.7670    1.2952 H   0  0  0  0  0  0  0  0  0  0  0  0
    0.8930   -1.8488    1.1521 H   0  0  0  0  0  0  0  0  0  0  0  0
    3.6896    0.3782   -1.2501 H   0  0  0  0  0  0  0  0  0  0  0  0
    2.1714   -3.9118    0.7387 H   0  0  0  0  0  0  0  0  0  0  0  0
    4.9826   -1.6841   -1.6584 H   0  0  0  0  0  0  0  0  0  0  0  0
   -3.5292    4.3786    0.2954 H   0  0  0  0  0  0  0  0  0  0  0  0
   -2.5417    5.7979   -0.0732 H   0  0  0  0  0  0  0  0  0  0  0  0
   -2.8395    5.3317    1.6161 H   0  0  0  0  0  0  0  0  0  0  0  0
   -2.2055   -1.8385   -2.0405 H   0  0  0  0  0  0  0  0  0  0  0  0
   -3.9472   -1.6096   -1.7763 H   0  0  0  0  0  0  0  0  0  0  0  0
   -3.1749   -3.1775   -1.3959 H   0  0  0  0  0  0  0  0  0  0  0  0
   -4.8168   -1.8204    0.6272 H   0  0  0  0  0  0  0  0  0  0  0  0
   -3.7742   -3.2307    0.9697 H   0  0  0  0  0  0  0  0  0  0  0  0
   -3.6396   -1.7586    1.9546 H   0  0  0  0  0  0  0  0  0  0  0  0
    4.3583   -4.9080    0.0764 H   0  0  0  0  0  0  0  0  0  0  0  0
    4.0752   -4.6810   -1.6700 H   0  0  0  0  0  0  0  0  0  0  0  0
    5.5162   -3.9829   -0.8852 H   0  0  0  0  0  0  0  0  0  0  0  0
    1.8659    2.1437    0.4643 H   0  0  0  0  0  0  0  0  0  0  0  0
   -2.2904    1.9520   -0.9827 H   0  0  0  0  0  0  0  0  0  0  0  0
    1.4575   -2.1580   -0.0165 H   0  0  0  0  0  0  0  0  0  0  0  0
   -0.5578   -0.2121   -2.1357 H   0  0  0  0  0  0  0  0  0  0  0  0
    0.0423   -0.5391    1.8227 H   0  0  0  0  0  0  0  0  0  0  0  0
   -1.2700   -1.5745   -0.1550 H   0  0  0  0  0  0  0  0  0  0  0  0
 10  4  1  0
 11  8  2  0
 12 11  1  0
 13  7  1  0
 14  7  2  0
 15 10  2  0
 16 10  1  0
 17 15  1  0
 18 16  2  0
 19 18  1  0
 20 11  1  0
 21 13  1  0
 22 13  1  0
 23 19  1  0
  3  5  2  0
  9 12  2  0
 17 19  2  0
  2  1  1  0
  3  4  1  0
  4  1  2  0
  5  2  1  0
  6  1  1  0
  7  6  1  0
  8  2  1  0
  9  5  1  0
 33 27  1  0
 34 31  2  0
 35 34  1  0
 36 30  1  0
 37 30  2  0
 38 33  2  0
 39 33  1  0
 40 38  1  0
 41 39  2  0
 42 41  1  0
 43 34  1  0
 44 36  1  0
 45 36  1  0
 46 42  1  0
 26 28  2  0
 32 35  2  0
 40 42  2  0
 25 24  1  0
 26 27  1  0
 27 24  2  0
 28 25  1  0
 29 24  1  0
 30 29  1  0
 31 25  1  0
 32 28  1  0
 53 48  2  0
 54 51  1  0
 55 52  1  0
 53 47  1  0
 55 56  1  0
 54 55  1  0
 56 49  1  0
 53 54  1  0
 56 50  2  0
  6 57  1  0
  6 58  1  0
  8 59  1  0
  9 60  1  0
 12 61  1  0
 15 62  1  0
 16 63  1  0
 17 64  1  0
 18 65  1  0
 20 66  1  0
 20 67  1  0
 20 68  1  0
 21 69  1  0
 21 70  1  0
 21 71  1  0
 22 72  1  0
 22 73  1  0
 22 74  1  0
 23 75  1  0
 23 76  1  0
 23 77  1  0
 29 78  1  0
 29 79  1  0
 31 80  1  0
 32 81  1  0
 35 82  1  0
 38 83  1  0
 39 84  1  0
 40 85  1  0
 41 86  1  0
 43 87  1  0
 43 88  1  0
 43 89  1  0
 44 90  1  0
 44 91  1  0
 44 92  1  0
 45 93  1  0
 45 94  1  0
 45 95  1  0
 46 96  1  0
 46 97  1  0
 46 98  1  0
 47 99  1  0
 49100  1  0
 51101  1  0
 52102  1  0
 54103  1  1
 55104  1  1
M  END
$$$$
