
     RDKit          3D

104107  0  0  0  0  0  0  0  0999 V2000
   -0.1761    0.8039    0.2807 C   0  0  0  0  0  0  0  0  0  0  0  0
   -0.6974    2.0733    0.1061 N   0  0  0  0  0  0  0  0  0  0  0  0
    1.5160    2.2548   -0.1968 N   0  0  0  0  0  0  0  0  0  0  0  0
    1.1783    0.9421    0.0211 C   0  0  0  0  0  0  0  0  0  0  0  0
    0.3792    2.9139   -0.1628 C   0  0  0  0  0  0  0  0  0  0  0  0
   -0.9920   -0.3785    0.6940 C   0  0  0  0  0  0  0  0  0  0  0  0
   -1.7667   -0.9881   -0.4748 C   0  0  0  0  0  0  0  0  0  0  0  0
   -2.0155    2.5289    0.1859 C   0  0  0  0  0  0  0  0  0  0  0  0
    0.0995    4.2957   -0.3454 C   0  0  0  0  0  0  0  0  0  0  0  0
    2.1637   -0.1210    0.0301 C   0  0  0  0  0  0  0  0  0  0  0  0
   -2.2844    3.8365    0.0044 C   0  0  0  0  0  0  0  0  0  0  0  0
   -1.1684    4.7410   -0.2643 C   0  0  0  0  0  0  0  0  0  0  0  0
   -2.4309   -2.1922   -0.2239 N   0  0  0  0  0  0  0  0  0  0  0  0
   -1.8267   -0.4368   -1.5757 O   0  0  0  0  0  0  0  0  0  0  0  0
    3.3454    0.0365    0.7603 C   0  0  0  0  0  0  0  0  0  0  0  0
    1.9670   -1.2959   -0.7046 C   0  0  0  0  0  0  0  0  0  0  0  0
    4.3011   -0.9827    0.7888 C   0  0  0  0  0  0  0  0  0  0  0  0
    2.9221   -2.3156   -0.6776 C   0  0  0  0  0  0  0  0  0  0  0  0
    4.0880   -2.1735    0.0839 C   0  0  0  0  0  0  0  0  0  0  0  0
   -3.6633    4.4159    0.0502 C   0  0  0  0  0  0  0  0  0  0  0  0
   -3.0598   -2.8724   -1.3454 C   0  0  0  0  0  0  0  0  0  0  0  0
   -2.2265   -2.9925    0.9750 C   0  0  0  0  0  0  0  0  0  0  0  0
    5.1273   -3.2543    0.0863 C   0  0  0  0  0  0  0  0  0  0  0  0
    0.0852    0.8465   -0.0135 C   0  0  0  0  0  0  0  0  0  0  0  0
   -0.1634    2.0787    0.5707 N   0  0  0  0  0  0  0  0  0  0  0  0
    1.8892    1.4700    1.2354 N   0  0  0  0  0  0  0  0  0  0  0  0
    1.3625    0.5112    0.4067 C   0  0  0  0  0  0  0  0  0  0  0  0
    0.9674    2.4043    1.3154 C   0  0  0  0  0  0  0  0  0  0  0  0
   -0.8977    0.1202   -0.8762 C   0  0  0  0  0  0  0  0  0  0  0  0
   -2.0630   -0.4646   -0.0720 C   0  0  0  0  0  0  0  0  0  0  0  0
   -1.2816    2.9140    0.4856 C   0  0  0  0  0  0  0  0  0  0  0  0
    0.9542    3.6419    2.0176 C   0  0  0  0  0  0  0  0  0  0  0  0
    2.0864   -0.6970    0.0687 C   0  0  0  0  0  0  0  0  0  0  0  0
   -1.2951    4.0896    1.1445 C   0  0  0  0  0  0  0  0  0  0  0  0
   -0.1209    4.4497    1.9372 C   0  0  0  0  0  0  0  0  0  0  0  0
   -2.8989   -1.3614   -0.7414 N   0  0  0  0  0  0  0  0  0  0  0  0
   -2.2811   -0.1329    1.0944 O   0  0  0  0  0  0  0  0  0  0  0  0
    2.4074   -0.9991   -1.2592 C   0  0  0  0  0  0  0  0  0  0  0  0
    2.4909   -1.5661    1.0863 C   0  0  0  0  0  0  0  0  0  0  0  0
    3.1097   -2.1673   -1.5676 C   0  0  0  0  0  0  0  0  0  0  0  0
    3.1895   -2.7367    0.7769 C   0  0  0  0  0  0  0  0  0  0  0  0
    3.5126   -3.0410   -0.5509 C   0  0  0  0  0  0  0  0  0  0  0  0
   -2.4498    5.0422    1.1251 C   0  0  0  0  0  0  0  0  0  0  0  0
   -3.9331   -2.0469    0.0185 C   0  0  0  0  0  0  0  0  0  0  0  0
   -2.6587   -1.8633   -2.0857 C   0  0  0  0  0  0  0  0  0  0  0  0
    4.2417   -4.3089   -0.8849 C   0  0  0  0  0  0  0  0  0  0  0  0
   -2.2703    0.8504    0.9683 O   0  0  0  0  0  0  0  0  0  0  0  0
   -1.5040    1.5728   -1.0044 O   0  0  0  0  0  0  0  0  0  0  0  0
    1.2912    1.3916    0.5963 O   0  0  0  0  0  0  0  0  0  0  0  0
    2.7695   -0.2552    0.3056 O   0  0  0  0  0  0  0  0  0  0  0  0
   -0.5748   -1.1575    1.1767 O   0  0  0  0  0  0  0  0  0  0  0  0
    1.0857   -1.7277   -1.2771 O   0  0  0  0  0  0  0  0  0  0  0  0
   -1.4944    0.7184   -0.1349 C   0  0  0  0  0  0  0  0  0  0  0  0
   -0.7283   -0.6019   -0.1340 C   0  0  1  0  0  0  0  0  0  0  0  0
    0.6215   -0.4382   -0.8326 C   0  0  1  0  0  0  0  0  0  0  0  0
    1.6570    0.2037    0.0815 C   0  0  0  0  0  0  0  0  0  0  0  0
   -1.7071   -0.0857    1.4712 H   0  0  0  0  0  0  0  0  0  0  0  0
   -0.3268   -1.1355    1.1219 H   0  0  0  0  0  0  0  0  0  0  0  0
   -2.7850    1.7934    0.3793 H   0  0  0  0  0  0  0  0  0  0  0  0
    0.9264    4.9647   -0.5515 H   0  0  0  0  0  0  0  0  0  0  0  0
   -1.3826    5.7963   -0.4052 H   0  0  0  0  0  0  0  0  0  0  0  0
    3.5259    0.9592    1.3075 H   0  0  0  0  0  0  0  0  0  0  0  0
    1.0819   -1.4149   -1.3254 H   0  0  0  0  0  0  0  0  0  0  0  0
    5.2144   -0.8359    1.3608 H   0  0  0  0  0  0  0  0  0  0  0  0
    2.7545   -3.2156   -1.2656 H   0  0  0  0  0  0  0  0  0  0  0  0
   -3.9155    4.8858   -0.9063 H   0  0  0  0  0  0  0  0  0  0  0  0
   -3.7386    5.1724    0.8385 H   0  0  0  0  0  0  0  0  0  0  0  0
   -4.4196    3.6499    0.2533 H   0  0  0  0  0  0  0  0  0  0  0  0
   -3.9829   -3.3479   -1.0023 H   0  0  0  0  0  0  0  0  0  0  0  0
   -3.3049   -2.1820   -2.1566 H   0  0  0  0  0  0  0  0  0  0  0  0
   -2.3704   -3.6342   -1.7206 H   0  0  0  0  0  0  0  0  0  0  0  0
   -3.1123   -3.6069    1.1572 H   0  0  0  0  0  0  0  0  0  0  0  0
   -1.3553   -3.6352    0.8177 H   0  0  0  0  0  0  0  0  0  0  0  0
   -2.0597   -2.3648    1.8527 H   0  0  0  0  0  0  0  0  0  0  0  0
    5.8119   -3.1191   -0.7570 H   0  0  0  0  0  0  0  0  0  0  0  0
    4.6607   -4.2421    0.0108 H   0  0  0  0  0  0  0  0  0  0  0  0
    5.7053   -3.2408    1.0164 H   0  0  0  0  0  0  0  0  0  0  0  0
   -0.3871   -0.6975   -1.3917 H   0  0  0  0  0  0  0  0  0  0  0  0
   -1.3008    0.8004   -1.6350 H   0  0  0  0  0  0  0  0  0  0  0  0
   -2.1158    2.5685   -0.1107 H   0  0  0  0  0  0  0  0  0  0  0  0
    1.8232    3.9063    2.6090 H   0  0  0  0  0  0  0  0  0  0  0  0
   -0.1309    5.3934    2.4759 H   0  0  0  0  0  0  0  0  0  0  0  0
    2.1299   -0.3169   -2.0581 H   0  0  0  0  0  0  0  0  0  0  0  0
    2.2620   -1.3323    2.1242 H   0  0  0  0  0  0  0  0  0  0  0  0
    3.3503   -2.3854   -2.6056 H   0  0  0  0  0  0  0  0  0  0  0  0
    3.4838   -3.4053    1.5829 H   0  0  0  0  0  0  0  0  0  0  0  0
   -2.8327    5.2050    2.1382 H   0  0  0  0  0  0  0  0  0  0  0  0
   -3.2773    4.6649    0.5146 H   0  0  0  0  0  0  0  0  0  0  0  0
   -2.1439    6.0087    0.7102 H   0  0  0  0  0  0  0  0  0  0  0  0
   -4.8745   -1.9971   -0.5386 H   0  0  0  0  0  0  0  0  0  0  0  0
   -3.6387   -3.0942    0.1432 H   0  0  0  0  0  0  0  0  0  0  0  0
   -4.0878   -1.6034    1.0068 H   0  0  0  0  0  0  0  0  0  0  0  0
   -2.0614   -2.7775   -2.0140 H   0  0  0  0  0  0  0  0  0  0  0  0
   -2.1317   -1.1335   -2.7049 H   0  0  0  0  0  0  0  0  0  0  0  0
   -3.6176   -2.0888   -2.5651 H   0  0  0  0  0  0  0  0  0  0  0  0
    3.5265   -5.1136   -1.0819 H   0  0  0  0  0  0  0  0  0  0  0  0
    4.8742   -4.1733   -1.7687 H   0  0  0  0  0  0  0  0  0  0  0  0
    4.8971   -4.6113   -0.0625 H   0  0  0  0  0  0  0  0  0  0  0  0
   -2.6990    1.7254    0.8508 H   0  0  0  0  0  0  0  0  0  0  0  0
    2.0651    1.6683    1.1337 H   0  0  0  0  0  0  0  0  0  0  0  0
   -1.4212   -0.9870    1.6351 H   0  0  0  0  0  0  0  0  0  0  0  0
    2.0002   -1.8267   -0.9370 H   0  0  0  0  0  0  0  0  0  0  0  0
   -1.3450   -1.3150   -0.6939 H   0  0  0  0  0  0  0  0  0  0  0  0
    0.5467    0.1787   -1.7340 H   0  0  0  0  0  0  0  0  0  0  0  0
 10  4  1  0
 11  8  2  0
 12 11  1  0
 13  7  1  0
 14  7  2  0
 15 10  2  0
 16 10  1  0
 17 15  1  0
 18 16  2  0
 19 18  1  0
 20 11  1  0
 21 13  1  0
 22 13  1  0
 23 19  1  0
  3  5  2  0
  9 12  2  0
 17 19  2  0
  2  1  1  0
  3  4  1  0
  4  1  2  0
  5  2  1  0
  6  1  1  0
  7  6  1  0
  8  2  1  0
  9  5  1  0
 33 27  1  0
 34 31  2  0
 35 34  1  0
 36 30  1  0
 37 30  2  0
 38 33  2  0
 39 33  1  0
 40 38  1  0
 41 39  2  0
 42 41  1  0
 43 34  1  0
 44 36  1  0
 45 36  1  0
 46 42  1  0
 26 28  2  0
 32 35  2  0
 40 42  2  0
 25 24  1  0
 26 27  1  0
 27 24  2  0
 28 25  1  0
 29 24  1  0
 30 29  1  0
 31 25  1  0
 32 28  1  0
 53 48  2  0
 54 51  1  0
 55 52  1  0
 53 47  1  0
 55 56  1  0
 54 55  1  0
 56 49  1  0
 53 54  1  0
 56 50  2  0
  6 57  1  0
  6 58  1  0
  8 59  1  0
  9 60  1  0
 12 61  1  0
 15 62  1  0
 16 63  1  0
 17 64  1  0
 18 65  1  0
 20 66  1  0
 20 67  1  0
 20 68  1  0
 21 69  1  0
 21 70  1  0
 21 71  1  0
 22 72  1  0
 22 73  1  0
 22 74  1  0
 23 75  1  0
 23 76  1  0
 23 77  1  0
 29 78  1  0
 29 79  1  0
 31 80  1  0
 32 81  1  0
 35 82  1  0
 38 83  1  0
 39 84  1  0
 40 85  1  0
 41 86  1  0
 43 87  1  0
 43 88  1  0
 43 89  1  0
 44 90  1  0
 44 91  1  0
 44 92  1  0
 45 93  1  0
 45 94  1  0
 45 95  1  0
 46 96  1  0
 46 97  1  0
 46 98  1  0
 47 99  1  0
 49100  1  0
 51101  1  0
 52102  1  0
 54103  1  6
 55104  1  6
M  END
$$$$
