
     RDKit          3D

104107  0  0  0  0  0  0  0  0999 V2000
   -0.4052   -0.6882    0.2636 C   0  0  0  0  0  0  0  0  0  0  0  0
   -1.3151   -1.7227    0.1346 N   0  0  0  0  0  0  0  0  0  0  0  0
    0.7152   -2.6405   -0.0988 N   0  0  0  0  0  0  0  0  0  0  0  0
    0.8304   -1.2807    0.0565 C   0  0  0  0  0  0  0  0  0  0  0  0
   -0.5763   -2.8842   -0.0733 C   0  0  0  0  0  0  0  0  0  0  0  0
   -0.7866    0.7213    0.5909 C   0  0  0  0  0  0  0  0  0  0  0  0
   -1.2863    1.4886   -0.6335 C   0  0  0  0  0  0  0  0  0  0  0  0
   -2.7099   -1.7130    0.2181 C   0  0  0  0  0  0  0  0  0  0  0  0
   -1.2998   -4.1013   -0.2118 C   0  0  0  0  0  0  0  0  0  0  0  0
    2.1154   -0.6095    0.0804 C   0  0  0  0  0  0  0  0  0  0  0  0
   -3.3957   -2.8655    0.0902 C   0  0  0  0  0  0  0  0  0  0  0  0
   -2.6450   -4.0991   -0.1355 C   0  0  0  0  0  0  0  0  0  0  0  0
   -1.5107    2.8542   -0.4727 N   0  0  0  0  0  0  0  0  0  0  0  0
   -1.4891    0.9260   -1.7131 O   0  0  0  0  0  0  0  0  0  0  0  0
    3.1462   -1.1245    0.8729 C   0  0  0  0  0  0  0  0  0  0  0  0
    2.3500    0.5435   -0.6784 C   0  0  0  0  0  0  0  0  0  0  0  0
    4.3820   -0.4743    0.9377 C   0  0  0  0  0  0  0  0  0  0  0  0
    3.5845    1.1960   -0.6111 C   0  0  0  0  0  0  0  0  0  0  0  0
    4.6112    0.6906    0.1950 C   0  0  0  0  0  0  0  0  0  0  0  0
   -4.8871   -2.9557    0.1679 C   0  0  0  0  0  0  0  0  0  0  0  0
   -1.3190    3.6014    0.7615 C   0  0  0  0  0  0  0  0  0  0  0  0
   -1.9238    3.6378   -1.6252 C   0  0  0  0  0  0  0  0  0  0  0  0
    5.9252    1.4075    0.2949 C   0  0  0  0  0  0  0  0  0  0  0  0
   -0.2769   -0.6545   -0.3614 C   0  0  0  0  0  0  0  0  0  0  0  0
   -1.0235   -1.8236   -0.3619 N   0  0  0  0  0  0  0  0  0  0  0  0
    1.1256   -2.4511   -0.2313 N   0  0  0  0  0  0  0  0  0  0  0  0
    1.0405   -1.0836   -0.3085 C   0  0  0  0  0  0  0  0  0  0  0  0
   -0.1177   -2.8781   -0.2702 C   0  0  0  0  0  0  0  0  0  0  0  0
   -0.8622    0.7245   -0.4102 C   0  0  0  0  0  0  0  0  0  0  0  0
   -1.5769    1.1133    0.8862 C   0  0  0  0  0  0  0  0  0  0  0  0
   -2.4061   -2.0193   -0.4445 C   0  0  0  0  0  0  0  0  0  0  0  0
   -0.6485   -4.1985   -0.2520 C   0  0  0  0  0  0  0  0  0  0  0  0
    2.2120   -0.2314   -0.3181 C   0  0  0  0  0  0  0  0  0  0  0  0
   -2.9120   -3.2684   -0.4316 C   0  0  0  0  0  0  0  0  0  0  0  0
   -1.9793   -4.3893   -0.3359 C   0  0  0  0  0  0  0  0  0  0  0  0
   -1.8898    2.4650    1.0578 N   0  0  0  0  0  0  0  0  0  0  0  0
   -1.8917    0.2719    1.7293 O   0  0  0  0  0  0  0  0  0  0  0  0
    3.0371   -0.1664    0.8079 C   0  0  0  0  0  0  0  0  0  0  0  0
    2.5430    0.5136   -1.4564 C   0  0  0  0  0  0  0  0  0  0  0  0
    4.1713    0.6523    0.8023 C   0  0  0  0  0  0  0  0  0  0  0  0
    3.6785    1.3309   -1.4602 C   0  0  0  0  0  0  0  0  0  0  0  0
    4.5088    1.3976   -0.3343 C   0  0  0  0  0  0  0  0  0  0  0  0
   -4.3761   -3.5730   -0.4981 C   0  0  0  0  0  0  0  0  0  0  0  0
   -2.5973    2.8541    2.2707 C   0  0  0  0  0  0  0  0  0  0  0  0
   -1.8446    3.4703    0.0050 C   0  0  0  0  0  0  0  0  0  0  0  0
    5.7175    2.2869   -0.3316 C   0  0  0  0  0  0  0  0  0  0  0  0
   -1.9849    1.2389   -0.0075 O   0  0  0  0  0  0  0  0  0  0  0  0
   -0.9367    1.4268    1.9565 O   0  0  0  0  0  0  0  0  0  0  0  0
    1.1056    1.4696   -0.8781 O   0  0  0  0  0  0  0  0  0  0  0  0
    2.3808   -0.3242   -1.2573 O   0  0  0  0  0  0  0  0  0  0  0  0
    0.5096   -0.9229    1.5578 O   0  0  0  0  0  0  0  0  0  0  0  0
    0.2398   -2.0537   -1.1361 O   0  0  0  0  0  0  0  0  0  0  0  0
   -1.1247    0.7920    0.9271 C   0  0  0  0  0  0  0  0  0  0  0  0
   -0.5198   -0.5733    0.6209 C   0  0  1  0  0  0  0  0  0  0  0  0
    0.0014   -0.6715   -0.8133 C   0  0  1  0  0  0  0  0  0  0  0  0
    1.2793    0.1388   -0.9963 C   0  0  0  0  0  0  0  0  0  0  0  0
   -1.5727    0.7240    1.3535 H   0  0  0  0  0  0  0  0  0  0  0  0
    0.0834    1.2425    1.0053 H   0  0  0  0  0  0  0  0  0  0  0  0
   -3.1943   -0.7581    0.3765 H   0  0  0  0  0  0  0  0  0  0  0  0
   -0.7417   -5.0129   -0.3859 H   0  0  0  0  0  0  0  0  0  0  0  0
   -3.1979   -5.0291   -0.2442 H   0  0  0  0  0  0  0  0  0  0  0  0
    2.9874   -2.0339    1.4496 H   0  0  0  0  0  0  0  0  0  0  0  0
    1.5786    0.9363   -1.3368 H   0  0  0  0  0  0  0  0  0  0  0  0
    5.1654   -0.8855    1.5711 H   0  0  0  0  0  0  0  0  0  0  0  0
    3.7403    2.0985   -1.1985 H   0  0  0  0  0  0  0  0  0  0  0  0
   -5.1904   -3.6980    0.9140 H   0  0  0  0  0  0  0  0  0  0  0  0
   -5.3092   -3.2448   -0.7998 H   0  0  0  0  0  0  0  0  0  0  0  0
   -5.3347   -1.9983    0.4557 H   0  0  0  0  0  0  0  0  0  0  0  0
   -1.1663    2.9609    1.6291 H   0  0  0  0  0  0  0  0  0  0  0  0
   -2.2035    4.2175    0.9451 H   0  0  0  0  0  0  0  0  0  0  0  0
   -0.4466    4.2493    0.6452 H   0  0  0  0  0  0  0  0  0  0  0  0
   -1.9729    3.0450   -2.5422 H   0  0  0  0  0  0  0  0  0  0  0  0
   -2.9147    4.0568   -1.4241 H   0  0  0  0  0  0  0  0  0  0  0  0
   -1.2093    4.4531   -1.7762 H   0  0  0  0  0  0  0  0  0  0  0  0
    6.1374    1.9639   -0.6239 H   0  0  0  0  0  0  0  0  0  0  0  0
    6.7455    0.6972    0.4402 H   0  0  0  0  0  0  0  0  0  0  0  0
    5.9055    2.1078    1.1358 H   0  0  0  0  0  0  0  0  0  0  0  0
   -1.5727    0.7981   -1.2402 H   0  0  0  0  0  0  0  0  0  0  0  0
   -0.0574    1.4413   -0.5855 H   0  0  0  0  0  0  0  0  0  0  0  0
   -3.0278   -1.1370   -0.5017 H   0  0  0  0  0  0  0  0  0  0  0  0
    0.0430   -5.0303   -0.1787 H   0  0  0  0  0  0  0  0  0  0  0  0
   -2.3834   -5.3976   -0.3323 H   0  0  0  0  0  0  0  0  0  0  0  0
    2.8014   -0.7552    1.6914 H   0  0  0  0  0  0  0  0  0  0  0  0
    1.9237    0.4553   -2.3479 H   0  0  0  0  0  0  0  0  0  0  0  0
    4.7921    0.6985    1.6947 H   0  0  0  0  0  0  0  0  0  0  0  0
    3.9168    1.9011   -2.3559 H   0  0  0  0  0  0  0  0  0  0  0  0
   -4.9775   -2.6567   -0.5434 H   0  0  0  0  0  0  0  0  0  0  0  0
   -4.6957   -4.1356    0.3890 H   0  0  0  0  0  0  0  0  0  0  0  0
   -4.6054   -4.1633   -1.3922 H   0  0  0  0  0  0  0  0  0  0  0  0
   -2.4583    2.1290    3.0770 H   0  0  0  0  0  0  0  0  0  0  0  0
   -3.6649    2.9285    2.0365 H   0  0  0  0  0  0  0  0  0  0  0  0
   -2.2263    3.8250    2.6086 H   0  0  0  0  0  0  0  0  0  0  0  0
   -2.8692    3.6630   -0.3337 H   0  0  0  0  0  0  0  0  0  0  0  0
   -1.2492    3.1616   -0.8552 H   0  0  0  0  0  0  0  0  0  0  0  0
   -1.4176    4.3914    0.4130 H   0  0  0  0  0  0  0  0  0  0  0  0
    5.4465    3.2954   -0.0021 H   0  0  0  0  0  0  0  0  0  0  0  0
    6.4908    1.8953    0.3383 H   0  0  0  0  0  0  0  0  0  0  0  0
    6.1595    2.3492   -1.3325 H   0  0  0  0  0  0  0  0  0  0  0  0
   -2.2937    2.1039    0.3360 H   0  0  0  0  0  0  0  0  0  0  0  0
    2.0071    1.8429   -1.0084 H   0  0  0  0  0  0  0  0  0  0  0  0
    0.1972   -0.6260    2.4358 H   0  0  0  0  0  0  0  0  0  0  0  0
    1.1925   -2.2167   -0.9626 H   0  0  0  0  0  0  0  0  0  0  0  0
   -1.3189   -1.3088    0.7700 H   0  0  0  0  0  0  0  0  0  0  0  0
   -0.7346   -0.3157   -1.5445 H   0  0  0  0  0  0  0  0  0  0  0  0
 10  4  1  0
 11  8  2  0
 12 11  1  0
 13  7  1  0
 14  7  2  0
 15 10  2  0
 16 10  1  0
 17 15  1  0
 18 16  2  0
 19 18  1  0
 20 11  1  0
 21 13  1  0
 22 13  1  0
 23 19  1  0
  3  5  2  0
  9 12  2  0
 17 19  2  0
  2  1  1  0
  3  4  1  0
  4  1  2  0
  5  2  1  0
  6  1  1  0
  7  6  1  0
  8  2  1  0
  9  5  1  0
 33 27  1  0
 34 31  2  0
 35 34  1  0
 36 30  1  0
 37 30  2  0
 38 33  2  0
 39 33  1  0
 40 38  1  0
 41 39  2  0
 42 41  1  0
 43 34  1  0
 44 36  1  0
 45 36  1  0
 46 42  1  0
 26 28  2  0
 32 35  2  0
 40 42  2  0
 25 24  1  0
 26 27  1  0
 27 24  2  0
 28 25  1  0
 29 24  1  0
 30 29  1  0
 31 25  1  0
 32 28  1  0
 53 48  2  0
 54 51  1  0
 55 52  1  0
 53 47  1  0
 55 56  1  0
 54 55  1  0
 56 49  1  0
 53 54  1  0
 56 50  2  0
  6 57  1  0
  6 58  1  0
  8 59  1  0
  9 60  1  0
 12 61  1  0
 15 62  1  0
 16 63  1  0
 17 64  1  0
 18 65  1  0
 20 66  1  0
 20 67  1  0
 20 68  1  0
 21 69  1  0
 21 70  1  0
 21 71  1  0
 22 72  1  0
 22 73  1  0
 22 74  1  0
 23 75  1  0
 23 76  1  0
 23 77  1  0
 29 78  1  0
 29 79  1  0
 31 80  1  0
 32 81  1  0
 35 82  1  0
 38 83  1  0
 39 84  1  0
 40 85  1  0
 41 86  1  0
 43 87  1  0
 43 88  1  0
 43 89  1  0
 44 90  1  0
 44 91  1  0
 44 92  1  0
 45 93  1  0
 45 94  1  0
 45 95  1  0
 46 96  1  0
 46 97  1  0
 46 98  1  0
 47 99  1  0
 49100  1  0
 51101  1  0
 52102  1  0
 54103  1  6
 55104  1  6
M  END
$$$$
