
     RDKit          3D

 43 45  0  0  0  0  0  0  0  0999 V2000
    0.0000    0.0000    0.0000 Cl  0  0  0  0  0  0  0  0  0  0  0  0
   -7.2963    0.6251    0.1473 C   0  0  0  0  0  0  0  0  0  0  0  0
   -6.0325    0.1439    0.4128 C   0  0  0  0  0  0  0  0  0  0  0  0
   -4.9847    0.9289    0.7956 C   0  0  0  0  0  0  0  0  0  0  0  0
   -5.2778    2.3047    0.9078 C   0  0  0  0  0  0  0  0  0  0  0  0
   -6.5186    2.8180    0.6527 C   0  0  0  0  0  0  0  0  0  0  0  0
   -7.5363    1.9699    0.2692 C   0  0  0  0  0  0  0  0  0  0  0  0
   -2.9211    1.4697   -1.1059 C   0  0  0  0  0  0  0  0  0  0  0  0
   -2.6084    1.0511    0.1723 C   0  0  0  0  0  0  0  0  0  0  0  0
   -3.6180    0.5332    1.1005 C   0  0  0  0  0  0  0  0  0  0  0  0
   -1.2944    1.1314    0.5704 C   0  0  0  0  0  0  0  0  0  0  0  0
   -0.3187    1.6090   -0.2634 C   0  0  0  0  0  0  0  0  0  0  0  0
   -0.6662    2.0232   -1.5457 C   0  0  0  0  0  0  0  0  0  0  0  0
   -1.9764    1.9508   -1.9638 C   0  0  0  0  0  0  0  0  0  0  0  0
    0.3318    2.4885   -2.3354 F   0  0  0  0  0  0  0  0  0  0  0  0
    1.5226   -0.4340   -0.5665 O   0  0  0  0  0  0  0  0  0  0  0  0
    1.9522    0.6059    0.0151 C   0  0  0  0  0  0  0  0  0  0  0  0
    1.0389    1.6762    0.1897 N   0  0  0  0  0  0  0  0  0  0  0  0
   -8.3332   -0.2845   -0.2496 C   0  0  0  0  0  0  0  0  0  0  0  0
   -9.1902   -1.0230   -0.5628 N   0  0  0  0  0  0  0  0  0  0  0  0
   -3.3343   -0.6062    1.8227 N   0  0  0  0  0  0  0  0  0  0  0  0
   -3.3351   -1.8305    1.1544 C   0  0  0  0  0  0  0  0  0  0  0  0
   -4.6263   -2.3632    0.6266 C   0  0  0  0  0  0  0  0  0  0  0  0
   -4.4206   -3.7524   -0.0541 C   0  0  0  0  0  0  0  0  0  0  0  0
   -4.7523   -2.5854   -0.8611 C   0  0  0  0  0  0  0  0  0  0  0  0
    3.3243    0.6902    0.4804 C   0  0  0  0  0  0  0  0  0  0  0  0
    3.8947    1.7762    1.1268 C   0  0  0  0  0  0  0  0  0  0  0  0
    5.2045    1.4088    1.3773 C   0  0  0  0  0  0  0  0  0  0  0  0
    5.3776    0.1621    0.8937 N   0  0  0  0  0  0  0  0  0  0  0  0
    4.2508   -0.2755    0.3531 N   0  0  0  0  0  0  0  0  0  0  0  0
    6.2789    2.1865    2.0473 C   0  0  0  0  0  0  0  0  0  0  0  0
    7.0307    2.9102    1.1536 F   0  0  0  0  0  0  0  0  0  0  0  0
    7.1637    1.2904    2.6449 F   0  0  0  0  0  0  0  0  0  0  0  0
    5.7341    2.9231    3.0538 F   0  0  0  0  0  0  0  0  0  0  0  0
    4.1453   -1.5671   -0.2375 C   0  0  0  0  0  0  0  0  0  0  0  0
    5.0244   -1.9078   -1.2450 C   0  0  0  0  0  0  0  0  0  0  0  0
    3.2073   -2.5009    0.1448 C   0  0  0  0  0  0  0  0  0  0  0  0
    3.1429   -3.7592   -0.4666 C   0  0  0  0  0  0  0  0  0  0  0  0
    4.0172   -4.0766   -1.4570 C   0  0  0  0  0  0  0  0  0  0  0  0
    4.9714   -3.1561   -1.8616 C   0  0  0  0  0  0  0  0  0  0  0  0
    5.9548   -3.4614   -2.9477 C   0  0  0  0  0  0  0  0  0  0  0  0
    5.4731   -3.0934   -4.2456 N   0  0  0  0  0  0  0  0  0  0  0  0
    0.0000    0.0000    0.0000 Cl  0  0  0  0  0  0  0  0  0  0  0  0
  2  3  2  0
  3  4  1  0
  4  5  2  0
  5  6  1  0
  6  7  2  0
  2  7  1  0
  8  9  2  0
  9 10  1  0
 10  4  1  0
 11 12  2  0
 12 13  1  0
 13 14  2  0
  8 14  1  0
  9 11  1  0
 16 17  2  0
 17 18  1  0
 15 13  1  0
 18 12  1  0
  2 19  1  0
 19 20  3  0
 10 21  1  0
 21 22  1  0
 22 23  1  0
 23 24  1  0
 23 25  1  0
 24 25  1  0
 17 26  1  0
 27 28  1  0
 28 29  2  0
 29 30  1  0
 30 26  1  0
 27 26  2  0
 28 31  1  0
 31 32  1  0
 31 33  1  0
 31 34  1  0
 30 35  1  0
 37 38  1  0
 38 39  2  0
 39 40  1  0
 36 40  2  0
 36 35  1  0
 35 37  2  0
 40 41  1  0
 41 42  1  0
M  END
