
     RDKit          3D

 71 73  0  0  0  0  0  0  0  0999 V2000
    0.6863    0.0000    0.0000 Cl  0  0  0  0  0  0  0  0  0  0  0  0
   -5.4790    0.0200    2.6200 C   0  0  0  0  0  0  0  0  0  0  0  0
   -4.6822    0.4896    1.5662 C   0  0  0  0  0  0  0  0  0  0  0  0
   -3.8742   -0.3310    0.8404 C   0  0  0  0  0  0  0  0  0  0  0  0
   -3.8873   -1.6872    1.2166 C   0  0  0  0  0  0  0  0  0  0  0  0
   -4.6673   -2.1513    2.2499 C   0  0  0  0  0  0  0  0  0  0  0  0
   -5.4704   -1.3194    2.9655 C   0  0  0  0  0  0  0  0  0  0  0  0
   -2.0918    2.2986    0.4076 C   0  0  0  0  0  0  0  0  0  0  0  0
   -1.9160    0.9626    0.1371 C   0  0  0  0  0  0  0  0  0  0  0  0
   -3.0181    0.0561   -0.3044 C   0  0  2  0  0  0  0  0  0  0  0  0
   -0.6054    0.4861    0.2910 C   0  0  0  0  0  0  0  0  0  0  0  0
    0.4345    1.2932    0.6839 C   0  0  0  0  0  0  0  0  0  0  0  0
    0.2404    2.6301    0.9504 C   0  0  0  0  0  0  0  0  0  0  0  0
   -1.0363    3.1268    0.8081 C   0  0  0  0  0  0  0  0  0  0  0  0
    1.2441    3.4448    1.3377 F   0  0  0  0  0  0  0  0  0  0  0  0
    1.4193    0.1518    2.9973 O   0  0  0  0  0  0  0  0  0  0  0  0
    2.2100    0.1337    2.0145 C   0  0  0  0  0  0  0  0  0  0  0  0
    1.7416    0.7092    0.8118 N   0  0  0  0  0  0  0  0  0  0  0  0
   -6.3125    0.9332    3.3507 C   0  0  0  0  0  0  0  0  0  0  0  0
   -6.9668    1.6745    3.9491 N   0  0  0  0  0  0  0  0  0  0  0  0
   -3.7418    0.4334   -1.4344 N   0  0  0  0  0  0  0  0  0  0  0  0
   -4.4861    1.5939   -1.6052 C   0  0  0  0  0  0  0  0  0  0  0  0
   -5.2862    1.6071   -2.9192 C   0  0  0  0  0  0  0  0  0  0  0  0
   -4.5924    1.4893   -4.1986 C   0  0  0  0  0  0  0  0  0  0  0  0
   -5.3714    0.2786   -3.6567 C   0  0  0  0  0  0  0  0  0  0  0  0
    3.5054   -0.4682    2.2132 C   0  0  0  0  0  0  0  0  0  0  0  0
    3.9052   -1.0120    3.4267 C   0  0  0  0  0  0  0  0  0  0  0  0
    5.1945   -1.5112    3.3025 C   0  0  0  0  0  0  0  0  0  0  0  0
    5.5482   -1.2649    2.0345 N   0  0  0  0  0  0  0  0  0  0  0  0
    4.5463   -0.6476    1.3934 N   0  0  0  0  0  0  0  0  0  0  0  0
    5.9941   -2.1797    4.3790 C   0  0  0  0  0  0  0  0  0  0  0  0
    5.7153   -3.5354    4.4297 F   0  0  0  0  0  0  0  0  0  0  0  0
    7.3247   -2.0407    4.0271 F   0  0  0  0  0  0  0  0  0  0  0  0
    5.8150   -1.5763    5.6067 F   0  0  0  0  0  0  0  0  0  0  0  0
    4.6595   -0.2742    0.0316 C   0  0  0  0  0  0  0  0  0  0  0  0
    4.2777   -1.1248   -1.0120 C   0  0  0  0  0  0  0  0  0  0  0  0
    5.1859    0.9910   -0.2342 C   0  0  0  0  0  0  0  0  0  0  0  0
    5.3467    1.4435   -1.5271 C   0  0  0  0  0  0  0  0  0  0  0  0
    4.9687    0.6008   -2.5548 C   0  0  0  0  0  0  0  0  0  0  0  0
    4.4415   -0.6656   -2.2966 C   0  0  0  0  0  0  0  0  0  0  0  0
    4.0635   -1.4958   -3.4689 C   0  0  0  0  0  0  0  0  0  0  0  0
    5.2491   -2.2775   -3.8308 N   0  0  0  0  0  0  0  0  0  0  0  0
    0.6830    0.0000    0.0000 Cl  0  0  0  0  0  0  0  0  0  0  0  0
   -0.6863    0.0000    0.0000 H   0  0  0  0  0  0  0  0  0  0  0  0
   -4.7323    1.5288    1.3794 H   0  0  0  0  0  0  0  0  0  0  0  0
   -3.2794   -2.4210    0.7031 H   0  0  0  0  0  0  0  0  0  0  0  0
   -4.6670   -3.2093    2.5306 H   0  0  0  0  0  0  0  0  0  0  0  0
   -6.1000   -1.6344    3.7829 H   0  0  0  0  0  0  0  0  0  0  0  0
   -3.0475    2.7906    0.3427 H   0  0  0  0  0  0  0  0  0  0  0  0
   -2.4398   -0.8894   -0.6218 H   0  0  0  0  0  0  0  0  0  0  0  0
   -0.3852   -0.5722    0.0933 H   0  0  0  0  0  0  0  0  0  0  0  0
   -1.2172    4.1877    1.0146 H   0  0  0  0  0  0  0  0  0  0  0  0
    2.3411    0.7250   -0.0229 H   0  0  0  0  0  0  0  0  0  0  0  0
   -3.2389    0.1344   -2.3429 H   0  0  0  0  0  0  0  0  0  0  0  0
   -3.7496    2.4512   -1.7910 H   0  0  0  0  0  0  0  0  0  0  0  0
   -5.1115    1.9502   -0.7905 H   0  0  0  0  0  0  0  0  0  0  0  0
   -6.2223    2.2158   -2.8469 H   0  0  0  0  0  0  0  0  0  0  0  0
   -5.0347    1.9417   -5.1032 H   0  0  0  0  0  0  0  0  0  0  0  0
   -3.4850    1.3919   -4.2474 H   0  0  0  0  0  0  0  0  0  0  0  0
   -4.8099   -0.6000   -3.2979 H   0  0  0  0  0  0  0  0  0  0  0  0
   -6.3493    0.0633   -4.1503 H   0  0  0  0  0  0  0  0  0  0  0  0
    3.3677   -1.0791    4.3616 H   0  0  0  0  0  0  0  0  0  0  0  0
    3.8759   -2.0906   -0.7944 H   0  0  0  0  0  0  0  0  0  0  0  0
    5.4747    1.6317    0.5969 H   0  0  0  0  0  0  0  0  0  0  0  0
    5.7529    2.4215   -1.7562 H   0  0  0  0  0  0  0  0  0  0  0  0
    5.1007    0.9691   -3.5745 H   0  0  0  0  0  0  0  0  0  0  0  0
    3.2169   -2.1808   -3.2656 H   0  0  0  0  0  0  0  0  0  0  0  0
    3.8531   -0.8389   -4.3381 H   0  0  0  0  0  0  0  0  0  0  0  0
    5.2288   -3.2358   -3.3930 H   0  0  0  0  0  0  0  0  0  0  0  0
    6.1119   -1.8087   -3.4676 H   0  0  0  0  0  0  0  0  0  0  0  0
   -0.6830    0.0000    0.0000 H   0  0  0  0  0  0  0  0  0  0  0  0
  2  3  2  0
  3  4  1  0
  4  5  2  0
  5  6  1  0
  6  7  2  0
  2  7  1  0
  8  9  2  0
  9 10  1  0
 10  4  1  0
 11 12  2  0
 12 13  1  0
 13 14  2  0
  8 14  1  0
  9 11  1  0
 16 17  2  0
 17 18  1  0
 15 13  1  0
 18 12  1  0
  2 19  1  0
 19 20  3  0
 10 21  1  0
 21 22  1  0
 22 23  1  0
 23 24  1  0
 23 25  1  0
 24 25  1  0
 17 26  1  0
 27 28  1  0
 28 29  2  0
 29 30  1  0
 30 26  1  0
 27 26  2  0
 28 31  1  0
 31 32  1  0
 31 33  1  0
 31 34  1  0
 30 35  1  0
 37 38  1  0
 38 39  2  0
 39 40  1  0
 36 40  2  0
 36 35  1  0
 35 37  2  0
 40 41  1  0
 41 42  1  0
  1 44  1  0
  3 45  1  0
  5 46  1  0
  6 47  1  0
  7 48  1  0
  8 49  1  0
 10 50  1  6
 11 51  1  0
 14 52  1  0
 18 53  1  0
 21 54  1  0
 22 55  1  0
 22 56  1  0
 23 57  1  0
 24 58  1  0
 24 59  1  0
 25 60  1  0
 25 61  1  0
 27 62  1  0
 36 63  1  0
 37 64  1  0
 38 65  1  0
 39 66  1  0
 41 67  1  0
 41 68  1  0
 42 69  1  0
 42 70  1  0
 43 71  1  0
M  END
$$$$
