
     RDKit          3D

 71 73  0  0  0  0  0  0  0  0999 V2000
    0.6849    0.0000    0.0000 Cl  0  0  0  0  0  0  0  0  0  0  0  0
   -5.6956    3.3423    0.7250 C   0  0  0  0  0  0  0  0  0  0  0  0
   -5.4001    2.0463    1.1136 C   0  0  0  0  0  0  0  0  0  0  0  0
   -4.1083    1.7081    1.5023 C   0  0  0  0  0  0  0  0  0  0  0  0
   -3.1018    2.6455    1.5097 C   0  0  0  0  0  0  0  0  0  0  0  0
   -3.4125    3.9466    1.1159 C   0  0  0  0  0  0  0  0  0  0  0  0
   -4.6948    4.3042    0.7245 C   0  0  0  0  0  0  0  0  0  0  0  0
   -2.0972   -0.6159    3.2639 C   0  0  0  0  0  0  0  0  0  0  0  0
   -2.4904   -0.0558    2.0408 C   0  0  0  0  0  0  0  0  0  0  0  0
   -3.9086    0.2841    1.9059 C   0  0  2  0  0  0  0  0  0  0  0  0
   -1.5680    0.1646    1.0466 C   0  0  0  0  0  0  0  0  0  0  0  0
   -0.2160   -0.1463    1.1797 C   0  0  0  0  0  0  0  0  0  0  0  0
    0.1515   -0.6934    2.3821 C   0  0  0  0  0  0  0  0  0  0  0  0
   -0.7700   -0.9280    3.4146 C   0  0  0  0  0  0  0  0  0  0  0  0
    1.4210   -1.0303    2.6769 F   0  0  0  0  0  0  0  0  0  0  0  0
    2.5710   -0.9521    0.6617 O   0  0  0  0  0  0  0  0  0  0  0  0
    1.9463   -0.2451   -0.1205 C   0  0  0  0  0  0  0  0  0  0  0  0
    0.6268    0.1460    0.0983 N   0  0  0  0  0  0  0  0  0  0  0  0
   -7.0564    3.6657    0.3231 C   0  0  0  0  0  0  0  0  0  0  0  0
   -8.1416    3.9038    0.0014 N   0  0  0  0  0  0  0  0  0  0  0  0
   -4.6168   -0.5374    0.9978 N   0  0  0  0  0  0  0  0  0  0  0  0
   -4.2412   -0.6101   -0.3552 C   0  0  0  0  0  0  0  0  0  0  0  0
   -5.3180   -1.4862   -1.0474 C   0  0  0  0  0  0  0  0  0  0  0  0
   -5.0818   -1.6853   -2.5372 C   0  0  0  0  0  0  0  0  0  0  0  0
   -4.8799   -2.7979   -1.5278 C   0  0  0  0  0  0  0  0  0  0  0  0
    2.6613    0.1936   -1.3427 C   0  0  0  0  0  0  0  0  0  0  0  0
    2.1598    1.0073   -2.3431 C   0  0  0  0  0  0  0  0  0  0  0  0
    3.1410    1.1781   -3.3090 C   0  0  0  0  0  0  0  0  0  0  0  0
    4.2053    0.4683   -2.8728 N   0  0  0  0  0  0  0  0  0  0  0  0
    3.9180   -0.1098   -1.7147 N   0  0  0  0  0  0  0  0  0  0  0  0
    2.9756    1.9859   -4.5325 C   0  0  0  0  0  0  0  0  0  0  0  0
    4.2476    2.4474   -4.8733 F   0  0  0  0  0  0  0  0  0  0  0  0
    2.1902    3.1096   -4.2851 F   0  0  0  0  0  0  0  0  0  0  0  0
    2.4237    1.2638   -5.5564 F   0  0  0  0  0  0  0  0  0  0  0  0
    4.7657   -0.9409   -0.9331 C   0  0  0  0  0  0  0  0  0  0  0  0
    5.8461   -0.4705   -0.2176 C   0  0  0  0  0  0  0  0  0  0  0  0
    4.4394   -2.2994   -0.9252 C   0  0  0  0  0  0  0  0  0  0  0  0
    5.1782   -3.2176   -0.2074 C   0  0  0  0  0  0  0  0  0  0  0  0
    6.2624   -2.7496    0.5116 C   0  0  0  0  0  0  0  0  0  0  0  0
    6.5833   -1.4009    0.5010 C   0  0  0  0  0  0  0  0  0  0  0  0
    7.7575   -0.9711    1.2912 C   0  0  0  0  0  0  0  0  0  0  0  0
    8.9820   -1.0209    0.4932 N   0  0  0  0  0  0  0  0  0  0  0  0
    0.6889    0.0000    0.0000 Cl  0  0  0  0  0  0  0  0  0  0  0  0
   -0.6849    0.0000    0.0000 H   0  0  0  0  0  0  0  0  0  0  0  0
   -6.1969    1.2913    1.1111 H   0  0  0  0  0  0  0  0  0  0  0  0
   -2.0975    2.3974    1.8137 H   0  0  0  0  0  0  0  0  0  0  0  0
   -2.6277    4.6966    1.1173 H   0  0  0  0  0  0  0  0  0  0  0  0
   -4.9375    5.3308    0.4141 H   0  0  0  0  0  0  0  0  0  0  0  0
   -2.8210   -0.7887    4.0446 H   0  0  0  0  0  0  0  0  0  0  0  0
   -4.4397    0.2045    2.8895 H   0  0  0  0  0  0  0  0  0  0  0  0
   -1.9252    0.6166    0.1396 H   0  0  0  0  0  0  0  0  0  0  0  0
   -0.4618   -1.3609    4.3568 H   0  0  0  0  0  0  0  0  0  0  0  0
    0.2098    0.7645   -0.6726 H   0  0  0  0  0  0  0  0  0  0  0  0
   -5.1759   -1.3044    1.3722 H   0  0  0  0  0  0  0  0  0  0  0  0
   -4.2040    0.3190   -0.9318 H   0  0  0  0  0  0  0  0  0  0  0  0
   -3.2575   -1.1301   -0.4719 H   0  0  0  0  0  0  0  0  0  0  0  0
   -6.3715   -1.3309   -0.7372 H   0  0  0  0  0  0  0  0  0  0  0  0
   -5.9524   -1.7915   -3.2124 H   0  0  0  0  0  0  0  0  0  0  0  0
   -4.1637   -1.3081   -3.0064 H   0  0  0  0  0  0  0  0  0  0  0  0
   -5.6069   -3.6419   -1.5812 H   0  0  0  0  0  0  0  0  0  0  0  0
   -3.8458   -3.1203   -1.3134 H   0  0  0  0  0  0  0  0  0  0  0  0
    1.1582    1.4571   -2.3946 H   0  0  0  0  0  0  0  0  0  0  0  0
    6.0828    0.5840   -0.2366 H   0  0  0  0  0  0  0  0  0  0  0  0
    3.5838   -2.6709   -1.4914 H   0  0  0  0  0  0  0  0  0  0  0  0
    4.8853   -4.2577   -0.2337 H   0  0  0  0  0  0  0  0  0  0  0  0
    6.8367   -3.4850    1.0740 H   0  0  0  0  0  0  0  0  0  0  0  0
    7.6412    0.0812    1.6153 H   0  0  0  0  0  0  0  0  0  0  0  0
    7.9060   -1.5772    2.2176 H   0  0  0  0  0  0  0  0  0  0  0  0
    8.7544   -0.8455   -0.5117 H   0  0  0  0  0  0  0  0  0  0  0  0
    9.3723   -1.9766    0.6520 H   0  0  0  0  0  0  0  0  0  0  0  0
   -0.6889    0.0000    0.0000 H   0  0  0  0  0  0  0  0  0  0  0  0
  2  3  2  0
  3  4  1  0
  4  5  2  0
  5  6  1  0
  6  7  2  0
  2  7  1  0
  8  9  2  0
  9 10  1  0
 10  4  1  0
 11 12  2  0
 12 13  1  0
 13 14  2  0
  8 14  1  0
  9 11  1  0
 16 17  2  0
 17 18  1  0
 15 13  1  0
 18 12  1  0
  2 19  1  0
 19 20  3  0
 10 21  1  0
 21 22  1  0
 22 23  1  0
 23 24  1  0
 23 25  1  0
 24 25  1  0
 17 26  1  0
 27 28  1  0
 28 29  2  0
 29 30  1  0
 30 26  1  0
 27 26  2  0
 28 31  1  0
 31 32  1  0
 31 33  1  0
 31 34  1  0
 30 35  1  0
 37 38  1  0
 38 39  2  0
 39 40  1  0
 36 40  2  0
 36 35  1  0
 35 37  2  0
 40 41  1  0
 41 42  1  0
  1 44  1  0
  3 45  1  0
  5 46  1  0
  6 47  1  0
  7 48  1  0
  8 49  1  0
 10 50  1  1
 11 51  1  0
 14 52  1  0
 18 53  1  0
 21 54  1  0
 22 55  1  0
 22 56  1  0
 23 57  1  0
 24 58  1  0
 24 59  1  0
 25 60  1  0
 25 61  1  0
 27 62  1  0
 36 63  1  0
 37 64  1  0
 38 65  1  0
 39 66  1  0
 41 67  1  0
 41 68  1  0
 42 69  1  0
 42 70  1  0
 43 71  1  0
M  END
$$$$
