
     RDKit          3D

 71 73  0  0  0  0  0  0  0  0999 V2000
    0.6917    0.0000    0.0000 Cl  0  0  0  0  0  0  0  0  0  0  0  0
   -2.4206    2.9583   -0.2736 C   0  0  0  0  0  0  0  0  0  0  0  0
   -2.5450    1.5679   -0.2585 C   0  0  0  0  0  0  0  0  0  0  0  0
   -3.3784    0.9350    0.6632 C   0  0  0  0  0  0  0  0  0  0  0  0
   -4.0708    1.7324    1.5536 C   0  0  0  0  0  0  0  0  0  0  0  0
   -3.9646    3.1120    1.5586 C   0  0  0  0  0  0  0  0  0  0  0  0
   -3.1315    3.7193    0.6351 C   0  0  0  0  0  0  0  0  0  0  0  0
   -2.5307   -1.6060    2.7197 C   0  0  0  0  0  0  0  0  0  0  0  0
   -2.3969   -1.2149    1.3985 C   0  0  0  0  0  0  0  0  0  0  0  0
   -3.4875   -0.5534    0.6569 C   0  0  2  0  0  0  0  0  0  0  0  0
   -1.1968   -1.4637    0.7699 C   0  0  0  0  0  0  0  0  0  0  0  0
   -0.1589   -2.0830    1.4338 C   0  0  0  0  0  0  0  0  0  0  0  0
   -0.2873   -2.4804    2.7683 C   0  0  0  0  0  0  0  0  0  0  0  0
   -1.4847   -2.2236    3.3691 C   0  0  0  0  0  0  0  0  0  0  0  0
    0.7422   -3.0928    3.4180 F   0  0  0  0  0  0  0  0  0  0  0  0
    2.1126   -0.2791    1.2527 O   0  0  0  0  0  0  0  0  0  0  0  0
    2.1276   -1.3933    0.6702 C   0  0  0  0  0  0  0  0  0  0  0  0
    1.0468   -2.3141    0.7237 N   0  0  0  0  0  0  0  0  0  0  0  0
   -1.5623    3.6268   -1.2209 C   0  0  0  0  0  0  0  0  0  0  0  0
   -0.8776    4.1595   -2.0004 N   0  0  0  0  0  0  0  0  0  0  0  0
   -3.6300   -1.0965   -0.6575 N   0  0  0  0  0  0  0  0  0  0  0  0
   -4.7851   -0.6800   -1.3847 C   0  0  0  0  0  0  0  0  0  0  0  0
   -6.0742   -1.2178   -0.7995 C   0  0  0  0  0  0  0  0  0  0  0  0
   -7.3307   -0.8098   -1.5241 C   0  0  0  0  0  0  0  0  0  0  0  0
   -7.0597   -0.3048   -0.1410 C   0  0  0  0  0  0  0  0  0  0  0  0
    3.3019   -1.8059   -0.1175 C   0  0  0  0  0  0  0  0  0  0  0  0
    3.4777   -3.0039   -0.8111 C   0  0  0  0  0  0  0  0  0  0  0  0
    4.7159   -3.0063   -1.4239 C   0  0  0  0  0  0  0  0  0  0  0  0
    5.2689   -1.8251   -1.0986 N   0  0  0  0  0  0  0  0  0  0  0  0
    4.4419   -1.1255   -0.3357 N   0  0  0  0  0  0  0  0  0  0  0  0
    5.3009   -4.0966   -2.2666 C   0  0  0  0  0  0  0  0  0  0  0  0
    5.8918   -3.6110   -3.4075 F   0  0  0  0  0  0  0  0  0  0  0  0
    4.3027   -4.9902   -2.6513 F   0  0  0  0  0  0  0  0  0  0  0  0
    6.1998   -4.8124   -1.4991 F   0  0  0  0  0  0  0  0  0  0  0  0
    4.7708    0.1664    0.1553 C   0  0  0  0  0  0  0  0  0  0  0  0
    4.5610    1.3235   -0.5567 C   0  0  0  0  0  0  0  0  0  0  0  0
    5.3375    0.2185    1.4294 C   0  0  0  0  0  0  0  0  0  0  0  0
    5.7002    1.4256    2.0055 C   0  0  0  0  0  0  0  0  0  0  0  0
    5.4906    2.5803    1.2944 C   0  0  0  0  0  0  0  0  0  0  0  0
    4.9288    2.5137    0.0343 C   0  0  0  0  0  0  0  0  0  0  0  0
    4.7222    3.7987   -0.6946 C   0  0  0  0  0  0  0  0  0  0  0  0
    5.9336    4.0666   -1.4826 N   0  0  0  0  0  0  0  0  0  0  0  0
    0.6859    0.0000    0.0000 Cl  0  0  0  0  0  0  0  0  0  0  0  0
   -0.6917    0.0000    0.0000 H   0  0  0  0  0  0  0  0  0  0  0  0
   -1.9711    1.0180   -0.9875 H   0  0  0  0  0  0  0  0  0  0  0  0
   -4.7330    1.2558    2.2892 H   0  0  0  0  0  0  0  0  0  0  0  0
   -4.5169    3.7225    2.2651 H   0  0  0  0  0  0  0  0  0  0  0  0
   -3.0671    4.8028    0.6621 H   0  0  0  0  0  0  0  0  0  0  0  0
   -3.4853   -1.4003    3.1939 H   0  0  0  0  0  0  0  0  0  0  0  0
   -4.4509   -0.8081    1.1971 H   0  0  0  0  0  0  0  0  0  0  0  0
   -1.0803   -1.1666   -0.2504 H   0  0  0  0  0  0  0  0  0  0  0  0
   -1.6267   -2.5171    4.4022 H   0  0  0  0  0  0  0  0  0  0  0  0
    1.1079   -3.2379    0.2147 H   0  0  0  0  0  0  0  0  0  0  0  0
   -3.3244   -2.0620   -0.7776 H   0  0  0  0  0  0  0  0  0  0  0  0
   -4.8546    0.4002   -1.5406 H   0  0  0  0  0  0  0  0  0  0  0  0
   -4.6876   -1.1294   -2.4142 H   0  0  0  0  0  0  0  0  0  0  0  0
   -6.0463   -2.2846   -0.4966 H   0  0  0  0  0  0  0  0  0  0  0  0
   -7.2802   -0.0242   -2.3137 H   0  0  0  0  0  0  0  0  0  0  0  0
   -8.1645   -1.5383   -1.5963 H   0  0  0  0  0  0  0  0  0  0  0  0
   -7.5751   -0.7679    0.7420 H   0  0  0  0  0  0  0  0  0  0  0  0
   -6.8231    0.7690    0.0272 H   0  0  0  0  0  0  0  0  0  0  0  0
    2.7738   -3.8126   -0.8730 H   0  0  0  0  0  0  0  0  0  0  0  0
    4.1183    1.2722   -1.5517 H   0  0  0  0  0  0  0  0  0  0  0  0
    5.5005   -0.6723    1.9846 H   0  0  0  0  0  0  0  0  0  0  0  0
    6.1413    1.4643    2.9947 H   0  0  0  0  0  0  0  0  0  0  0  0
    5.7804    3.5098    1.7609 H   0  0  0  0  0  0  0  0  0  0  0  0
    3.8727    3.7095   -1.4010 H   0  0  0  0  0  0  0  0  0  0  0  0
    4.5789    4.6258    0.0443 H   0  0  0  0  0  0  0  0  0  0  0  0
    6.0484    3.1951   -2.0859 H   0  0  0  0  0  0  0  0  0  0  0  0
    5.7629    4.8616   -2.1090 H   0  0  0  0  0  0  0  0  0  0  0  0
   -0.6859    0.0000    0.0000 H   0  0  0  0  0  0  0  0  0  0  0  0
  2  3  2  0
  3  4  1  0
  4  5  2  0
  5  6  1  0
  6  7  2  0
  2  7  1  0
  8  9  2  0
  9 10  1  0
 10  4  1  0
 11 12  2  0
 12 13  1  0
 13 14  2  0
  8 14  1  0
  9 11  1  0
 16 17  2  0
 17 18  1  0
 15 13  1  0
 18 12  1  0
  2 19  1  0
 19 20  3  0
 10 21  1  0
 21 22  1  0
 22 23  1  0
 23 24  1  0
 23 25  1  0
 24 25  1  0
 17 26  1  0
 27 28  1  0
 28 29  2  0
 29 30  1  0
 30 26  1  0
 27 26  2  0
 28 31  1  0
 31 32  1  0
 31 33  1  0
 31 34  1  0
 30 35  1  0
 37 38  1  0
 38 39  2  0
 39 40  1  0
 36 40  2  0
 36 35  1  0
 35 37  2  0
 40 41  1  0
 41 42  1  0
  1 44  1  0
  3 45  1  0
  5 46  1  0
  6 47  1  0
  7 48  1  0
  8 49  1  0
 10 50  1  1
 11 51  1  0
 14 52  1  0
 18 53  1  0
 21 54  1  0
 22 55  1  0
 22 56  1  0
 23 57  1  0
 24 58  1  0
 24 59  1  0
 25 60  1  0
 25 61  1  0
 27 62  1  0
 36 63  1  0
 37 64  1  0
 38 65  1  0
 39 66  1  0
 41 67  1  0
 41 68  1  0
 42 69  1  0
 42 70  1  0
 43 71  1  0
M  END
$$$$
