
     RDKit          3D

 71 73  0  0  0  0  0  0  0  0999 V2000
    0.6851    0.0000    0.0000 Cl  0  0  0  0  0  0  0  0  0  0  0  0
   -5.5860   -2.8647    1.7886 C   0  0  0  0  0  0  0  0  0  0  0  0
   -4.5868   -1.9983    1.3676 C   0  0  0  0  0  0  0  0  0  0  0  0
   -4.3370   -1.7983    0.0144 C   0  0  0  0  0  0  0  0  0  0  0  0
   -5.1245   -2.4977   -0.8925 C   0  0  0  0  0  0  0  0  0  0  0  0
   -6.1222   -3.3627   -0.4727 C   0  0  0  0  0  0  0  0  0  0  0  0
   -6.3651   -3.5567    0.8790 C   0  0  0  0  0  0  0  0  0  0  0  0
   -1.8106   -2.8135   -0.0096 C   0  0  0  0  0  0  0  0  0  0  0  0
   -1.9215   -1.4720   -0.3126 C   0  0  0  0  0  0  0  0  0  0  0  0
   -3.2789   -0.8809   -0.4352 C   0  0  2  0  0  0  0  0  0  0  0  0
   -0.8322   -0.6527   -0.5074 C   0  0  0  0  0  0  0  0  0  0  0  0
    0.4143   -1.2349   -0.3860 C   0  0  0  0  0  0  0  0  0  0  0  0
    0.5747   -2.5842   -0.0815 C   0  0  0  0  0  0  0  0  0  0  0  0
   -0.5504   -3.3678    0.1055 C   0  0  0  0  0  0  0  0  0  0  0  0
    1.8104   -3.1497    0.0363 F   0  0  0  0  0  0  0  0  0  0  0  0
    1.5092   -1.0521   -2.7704 O   0  0  0  0  0  0  0  0  0  0  0  0
    2.1518   -0.4373   -1.8750 C   0  0  0  0  0  0  0  0  0  0  0  0
    1.6278   -0.4875   -0.5655 N   0  0  0  0  0  0  0  0  0  0  0  0
   -5.8442   -3.0711    3.2005 C   0  0  0  0  0  0  0  0  0  0  0  0
   -6.0597   -3.2543    4.3311 N   0  0  0  0  0  0  0  0  0  0  0  0
   -3.2796    0.3779    0.2785 N   0  0  0  0  0  0  0  0  0  0  0  0
   -4.5051    1.0997    0.1348 C   0  0  0  0  0  0  0  0  0  0  0  0
   -4.4585    2.4217    0.9057 C   0  0  0  0  0  0  0  0  0  0  0  0
   -3.3883    3.4093    0.5128 C   0  0  0  0  0  0  0  0  0  0  0  0
   -4.8701    3.6698    0.2184 C   0  0  0  0  0  0  0  0  0  0  0  0
    3.3539    0.2530   -2.2791 C   0  0  0  0  0  0  0  0  0  0  0  0
    3.8143    0.2627   -3.5858 C   0  0  0  0  0  0  0  0  0  0  0  0
    4.9871    1.0099   -3.6467 C   0  0  0  0  0  0  0  0  0  0  0  0
    5.2082    1.4269   -2.4089 N   0  0  0  0  0  0  0  0  0  0  0  0
    4.2413    0.9805   -1.5918 N   0  0  0  0  0  0  0  0  0  0  0  0
    5.8125    1.2738   -4.8744 C   0  0  0  0  0  0  0  0  0  0  0  0
    7.1663    1.1975   -4.5899 F   0  0  0  0  0  0  0  0  0  0  0  0
    5.4532    0.3565   -5.8483 F   0  0  0  0  0  0  0  0  0  0  0  0
    5.4660    2.5257   -5.3421 F   0  0  0  0  0  0  0  0  0  0  0  0
    4.2433    1.2874   -0.2097 C   0  0  0  0  0  0  0  0  0  0  0  0
    4.8814    0.4825    0.7369 C   0  0  0  0  0  0  0  0  0  0  0  0
    3.5788    2.4563    0.1809 C   0  0  0  0  0  0  0  0  0  0  0  0
    3.5255    2.8584    1.4952 C   0  0  0  0  0  0  0  0  0  0  0  0
    4.1591    2.0593    2.4357 C   0  0  0  0  0  0  0  0  0  0  0  0
    4.8211    0.8954    2.0494 C   0  0  0  0  0  0  0  0  0  0  0  0
    5.4985    0.0440    3.0674 C   0  0  0  0  0  0  0  0  0  0  0  0
    6.8761    0.5095    3.2028 N   0  0  0  0  0  0  0  0  0  0  0  0
    0.6856    0.0000    0.0000 Cl  0  0  0  0  0  0  0  0  0  0  0  0
   -0.6851    0.0000    0.0000 H   0  0  0  0  0  0  0  0  0  0  0  0
   -3.9983   -1.4748    2.1156 H   0  0  0  0  0  0  0  0  0  0  0  0
   -4.9138   -2.3279   -1.9464 H   0  0  0  0  0  0  0  0  0  0  0  0
   -6.6915   -3.8697   -1.2319 H   0  0  0  0  0  0  0  0  0  0  0  0
   -7.1548   -4.2418    1.1827 H   0  0  0  0  0  0  0  0  0  0  0  0
   -2.6760   -3.4570    0.1435 H   0  0  0  0  0  0  0  0  0  0  0  0
   -3.4991   -0.6194   -1.5026 H   0  0  0  0  0  0  0  0  0  0  0  0
   -0.9083    0.4003   -0.7454 H   0  0  0  0  0  0  0  0  0  0  0  0
   -0.4107   -4.4096    0.3404 H   0  0  0  0  0  0  0  0  0  0  0  0
    2.1131   -0.0016    0.2082 H   0  0  0  0  0  0  0  0  0  0  0  0
   -2.9473    0.2780    1.2623 H   0  0  0  0  0  0  0  0  0  0  0  0
   -4.5761    1.3911   -0.9486 H   0  0  0  0  0  0  0  0  0  0  0  0
   -5.4230    0.5420    0.3556 H   0  0  0  0  0  0  0  0  0  0  0  0
   -4.7092    2.2992    1.9720 H   0  0  0  0  0  0  0  0  0  0  0  0
   -2.9432    3.9984    1.3467 H   0  0  0  0  0  0  0  0  0  0  0  0
   -2.7040    3.2255   -0.3151 H   0  0  0  0  0  0  0  0  0  0  0  0
   -5.4175    4.3986    0.8430 H   0  0  0  0  0  0  0  0  0  0  0  0
   -5.1440    3.6362   -0.8560 H   0  0  0  0  0  0  0  0  0  0  0  0
    3.4031   -0.1997   -4.4706 H   0  0  0  0  0  0  0  0  0  0  0  0
    5.3717   -0.3942    0.3899 H   0  0  0  0  0  0  0  0  0  0  0  0
    3.0899    3.0667   -0.5705 H   0  0  0  0  0  0  0  0  0  0  0  0
    3.0206    3.7503    1.8075 H   0  0  0  0  0  0  0  0  0  0  0  0
    4.1234    2.3686    3.4829 H   0  0  0  0  0  0  0  0  0  0  0  0
    5.0443    0.1354    4.0671 H   0  0  0  0  0  0  0  0  0  0  0  0
    5.5554   -1.0024    2.7166 H   0  0  0  0  0  0  0  0  0  0  0  0
    6.9293    1.3453    3.8338 H   0  0  0  0  0  0  0  0  0  0  0  0
    7.2119    0.8414    2.2634 H   0  0  0  0  0  0  0  0  0  0  0  0
   -0.6856    0.0000    0.0000 H   0  0  0  0  0  0  0  0  0  0  0  0
  2  3  2  0
  3  4  1  0
  4  5  2  0
  5  6  1  0
  6  7  2  0
  2  7  1  0
  8  9  2  0
  9 10  1  0
 10  4  1  0
 11 12  2  0
 12 13  1  0
 13 14  2  0
  8 14  1  0
  9 11  1  0
 16 17  2  0
 17 18  1  0
 15 13  1  0
 18 12  1  0
  2 19  1  0
 19 20  3  0
 10 21  1  0
 21 22  1  0
 22 23  1  0
 23 24  1  0
 23 25  1  0
 24 25  1  0
 17 26  1  0
 27 28  1  0
 28 29  2  0
 29 30  1  0
 30 26  1  0
 27 26  2  0
 28 31  1  0
 31 32  1  0
 31 33  1  0
 31 34  1  0
 30 35  1  0
 37 38  1  0
 38 39  2  0
 39 40  1  0
 36 40  2  0
 36 35  1  0
 35 37  2  0
 40 41  1  0
 41 42  1  0
  1 44  1  0
  3 45  1  0
  5 46  1  0
  6 47  1  0
  7 48  1  0
  8 49  1  0
 10 50  1  6
 11 51  1  0
 14 52  1  0
 18 53  1  0
 21 54  1  0
 22 55  1  0
 22 56  1  0
 23 57  1  0
 24 58  1  0
 24 59  1  0
 25 60  1  0
 25 61  1  0
 27 62  1  0
 36 63  1  0
 37 64  1  0
 38 65  1  0
 39 66  1  0
 41 67  1  0
 41 68  1  0
 42 69  1  0
 42 70  1  0
 43 71  1  0
M  END
$$$$
