
     RDKit          3D

 22 12  0  0  0  0  0  0  0  0999 V2000
    0.0000    0.0000    0.0000 Cl  0  0  0  0  0  0  0  0  0  0  0  0
   -0.0029    0.3713   -0.0000 O   0  0  0  0  0  0  0  0  0  0  0  0
   -0.0002    0.3966   -0.0000 O   0  0  0  0  0  0  0  0  0  0  0  0
   -0.0010    0.3628   -0.0000 O   0  0  0  0  0  0  0  0  0  0  0  0
   -0.0042    0.3700   -0.0000 O   0  0  0  0  0  0  0  0  0  0  0  0
   -0.0079    0.3916   -0.0000 O   0  0  0  0  0  0  0  0  0  0  0  0
   -0.0023    0.3771   -0.0000 O   0  0  0  0  0  0  0  0  0  0  0  0
    0.0000    0.0000    0.0000 Al  0  0  0  0  0 15  0  0  0  0  0  0
    0.0000    0.0000    0.0000 Cl  0  0  0  0  0  0  0  0  0  0  0  0
    0.0000    0.0000    0.0000 Cl  0  0  0  0  0  0  0  0  0  0  0  0
    0.8153   -0.1847    0.0000 H   0  0  0  0  0  0  0  0  0  0  0  0
   -0.8125   -0.1866   -0.0000 H   0  0  0  0  0  0  0  0  0  0  0  0
    0.8017   -0.1982    0.0000 H   0  0  0  0  0  0  0  0  0  0  0  0
   -0.8015   -0.1984   -0.0000 H   0  0  0  0  0  0  0  0  0  0  0  0
    0.8222   -0.1811    0.0000 H   0  0  0  0  0  0  0  0  0  0  0  0
   -0.8212   -0.1817   -0.0000 H   0  0  0  0  0  0  0  0  0  0  0  0
    0.8181   -0.1836    0.0000 H   0  0  0  0  0  0  0  0  0  0  0  0
   -0.8140   -0.1864   -0.0000 H   0  0  0  0  0  0  0  0  0  0  0  0
   -0.7927   -0.1987   -0.0000 H   0  0  0  0  0  0  0  0  0  0  0  0
    0.8006   -0.1928    0.0000 H   0  0  0  0  0  0  0  0  0  0  0  0
   -0.8127   -0.1894   -0.0000 H   0  0  0  0  0  0  0  0  0  0  0  0
    0.8150   -0.1877    0.0000 H   0  0  0  0  0  0  0  0  0  0  0  0
  2 11  1  0
  2 12  1  0
  3 13  1  0
  3 14  1  0
  4 15  1  0
  4 16  1  0
  5 17  1  0
  5 18  1  0
  6 19  1  0
  6 20  1  0
  7 21  1  0
  7 22  1  0
M  CHG  4   1  -1   8   3   9  -1  10  -1
M  END
$$$$
