
     RDKit          3D

 22 12  0  0  0  0  0  0  0  0999 V2000
    0.0000    0.0000    0.0000 Cl  0  0  0  0  0  0  0  0  0  0  0  0
   -0.0075    0.3972   -0.0000 O   0  0  0  0  0  0  0  0  0  0  0  0
   -0.0031    0.3709   -0.0000 O   0  0  0  0  0  0  0  0  0  0  0  0
   -0.0020    0.3811   -0.0000 O   0  0  0  0  0  0  0  0  0  0  0  0
   -0.0068    0.3924   -0.0000 O   0  0  0  0  0  0  0  0  0  0  0  0
   -0.0073    0.3871   -0.0000 O   0  0  0  0  0  0  0  0  0  0  0  0
   -0.0001    0.3988   -0.0000 O   0  0  0  0  0  0  0  0  0  0  0  0
    0.0000    0.0000    0.0000 Al  0  0  0  0  0 15  0  0  0  0  0  0
    0.0000    0.0000    0.0000 Cl  0  0  0  0  0  0  0  0  0  0  0  0
    0.0000    0.0000    0.0000 Cl  0  0  0  0  0  0  0  0  0  0  0  0
   -0.7884   -0.2015   -0.0000 H   0  0  0  0  0  0  0  0  0  0  0  0
    0.7959   -0.1957    0.0000 H   0  0  0  0  0  0  0  0  0  0  0  0
    0.8187   -0.1844    0.0000 H   0  0  0  0  0  0  0  0  0  0  0  0
   -0.8156   -0.1865   -0.0000 H   0  0  0  0  0  0  0  0  0  0  0  0
    0.8150   -0.1899    0.0000 H   0  0  0  0  0  0  0  0  0  0  0  0
   -0.8130   -0.1912   -0.0000 H   0  0  0  0  0  0  0  0  0  0  0  0
   -0.7965   -0.1988   -0.0000 H   0  0  0  0  0  0  0  0  0  0  0  0
    0.8033   -0.1937    0.0000 H   0  0  0  0  0  0  0  0  0  0  0  0
   -0.8015   -0.1962   -0.0000 H   0  0  0  0  0  0  0  0  0  0  0  0
    0.8088   -0.1909    0.0000 H   0  0  0  0  0  0  0  0  0  0  0  0
    0.7890   -0.1994    0.0000 H   0  0  0  0  0  0  0  0  0  0  0  0
   -0.7890   -0.1994   -0.0000 H   0  0  0  0  0  0  0  0  0  0  0  0
  2 11  1  0
  2 12  1  0
  3 13  1  0
  3 14  1  0
  4 15  1  0
  4 16  1  0
  5 17  1  0
  5 18  1  0
  6 19  1  0
  6 20  1  0
  7 21  1  0
  7 22  1  0
M  CHG  4   1  -1   8   3   9  -1  10  -1
M  END
$$$$
