
     RDKit          3D

 22 12  0  0  0  0  0  0  0  0999 V2000
    0.0000    0.0000    0.0000 Cl  0  0  0  0  0  0  0  0  0  0  0  0
   -0.0049    0.3736   -0.0000 O   0  0  0  0  0  0  0  0  0  0  0  0
   -0.0018    0.3732   -0.0000 O   0  0  0  0  0  0  0  0  0  0  0  0
   -0.0055    0.3789   -0.0000 O   0  0  0  0  0  0  0  0  0  0  0  0
   -0.0064    0.3771   -0.0000 O   0  0  0  0  0  0  0  0  0  0  0  0
   -0.0067    0.3967   -0.0000 O   0  0  0  0  0  0  0  0  0  0  0  0
   -0.0002    0.3649   -0.0000 O   0  0  0  0  0  0  0  0  0  0  0  0
    0.0000    0.0000    0.0000 Al  0  0  0  0  0 15  0  0  0  0  0  0
    0.0000    0.0000    0.0000 Cl  0  0  0  0  0  0  0  0  0  0  0  0
    0.0000    0.0000    0.0000 Cl  0  0  0  0  0  0  0  0  0  0  0  0
   -0.8115   -0.1885   -0.0000 H   0  0  0  0  0  0  0  0  0  0  0  0
    0.8164   -0.1851    0.0000 H   0  0  0  0  0  0  0  0  0  0  0  0
   -0.8240   -0.1872   -0.0000 H   0  0  0  0  0  0  0  0  0  0  0  0
    0.8258   -0.1860    0.0000 H   0  0  0  0  0  0  0  0  0  0  0  0
   -0.8076   -0.1914   -0.0000 H   0  0  0  0  0  0  0  0  0  0  0  0
    0.8131   -0.1875    0.0000 H   0  0  0  0  0  0  0  0  0  0  0  0
    0.8129   -0.1863    0.0000 H   0  0  0  0  0  0  0  0  0  0  0  0
   -0.8065   -0.1907   -0.0000 H   0  0  0  0  0  0  0  0  0  0  0  0
   -0.7867   -0.2009   -0.0000 H   0  0  0  0  0  0  0  0  0  0  0  0
    0.7934   -0.1958    0.0000 H   0  0  0  0  0  0  0  0  0  0  0  0
   -0.8193   -0.1825   -0.0000 H   0  0  0  0  0  0  0  0  0  0  0  0
    0.8194   -0.1824    0.0000 H   0  0  0  0  0  0  0  0  0  0  0  0
  2 11  1  0
  2 12  1  0
  3 13  1  0
  3 14  1  0
  4 15  1  0
  4 16  1  0
  5 17  1  0
  5 18  1  0
  6 19  1  0
  6 20  1  0
  7 21  1  0
  7 22  1  0
M  CHG  4   1  -1   8   3   9  -1  10  -1
M  END
$$$$
