
     RDKit          3D

 28 29  0  0  0  0  0  0  0  0999 V2000
    0.6905    0.0000    0.0000 Cl  0  0  0  0  0  0  0  0  0  0  0  0
   -1.8037   -0.0402    1.0667 C   0  0  0  0  0  0  0  0  0  0  0  0
   -0.5963    0.2583    1.3281 N   0  0  0  0  0  0  0  0  0  0  0  0
   -2.0473    0.1028   -0.3284 N   0  0  0  0  0  0  0  0  0  0  0  0
    0.1146    0.6391    0.1282 C   0  0  2  0  0  0  0  0  0  0  0  0
   -0.7246   -0.0535   -0.9455 C   0  0  0  0  0  0  0  0  0  0  0  0
   -3.3819   -0.5899    1.7742 S   0  0  0  0  0  0  0  0  0  0  0  0
    1.5252    0.2571    0.1047 C   0  0  0  0  0  0  0  0  0  0  0  0
   -3.4232    0.3372   -0.6171 C   0  0  0  0  0  0  0  0  0  0  0  0
   -4.2755   -0.6221    0.1668 C   0  0  0  0  0  0  0  0  0  0  0  0
    1.9644   -0.9869    0.4896 C   0  0  0  0  0  0  0  0  0  0  0  0
    2.4621    1.1994   -0.3277 C   0  0  0  0  0  0  0  0  0  0  0  0
    3.3214   -1.2578    0.4333 C   0  0  0  0  0  0  0  0  0  0  0  0
    3.8072    0.9033   -0.3739 C   0  0  0  0  0  0  0  0  0  0  0  0
    4.2539   -0.3353    0.0082 C   0  0  0  0  0  0  0  0  0  0  0  0
   -0.6905    0.0000    0.0000 H   0  0  0  0  0  0  0  0  0  0  0  0
   -0.0054    1.7359    0.0343 H   0  0  0  0  0  0  0  0  0  0  0  0
   -0.4769   -1.1139   -0.9988 H   0  0  0  0  0  0  0  0  0  0  0  0
   -0.6520    0.4192   -1.9271 H   0  0  0  0  0  0  0  0  0  0  0  0
   -3.6247    0.1320   -1.6777 H   0  0  0  0  0  0  0  0  0  0  0  0
   -3.7133    1.3900   -0.4230 H   0  0  0  0  0  0  0  0  0  0  0  0
   -4.3369   -1.6181   -0.2627 H   0  0  0  0  0  0  0  0  0  0  0  0
   -5.2703   -0.1570    0.3827 H   0  0  0  0  0  0  0  0  0  0  0  0
    1.2559   -1.7183    0.8232 H   0  0  0  0  0  0  0  0  0  0  0  0
    2.1287    2.1967   -0.6383 H   0  0  0  0  0  0  0  0  0  0  0  0
    3.7064   -2.2286    0.7290 H   0  0  0  0  0  0  0  0  0  0  0  0
    4.4758    1.6827   -0.7198 H   0  0  0  0  0  0  0  0  0  0  0  0
    5.3164   -0.5322   -0.0411 H   0  0  0  0  0  0  0  0  0  0  0  0
  3  2  2  0
  4  2  1  0
  5  3  1  0
  6  4  1  0
  7  2  1  0
  5  8  1  0
  9  4  1  0
 10  7  1  0
 11  8  2  0
 12  8  1  0
 13 11  1  0
 14 12  2  0
 15 13  2  0
 10  9  1  0
  6  5  1  0
 14 15  1  0
  1 16  1  0
  5 17  1  6
  6 18  1  0
  6 19  1  0
  9 20  1  0
  9 21  1  0
 10 22  1  0
 10 23  1  0
 11 24  1  0
 12 25  1  0
 13 26  1  0
 14 27  1  0
 15 28  1  0
M  END
$$$$
