
     RDKit          3D

 28 29  0  0  0  0  0  0  0  0999 V2000
    0.6854    0.0000    0.0000 Cl  0  0  0  0  0  0  0  0  0  0  0  0
    1.7716    0.8195   -0.6683 C   0  0  0  0  0  0  0  0  0  0  0  0
    0.5247    1.1471   -0.6537 N   0  0  0  0  0  0  0  0  0  0  0  0
    2.0224   -0.0439    0.4351 N   0  0  0  0  0  0  0  0  0  0  0  0
   -0.1414    0.5225    0.4644 C   0  0  2  0  0  0  0  0  0  0  0  0
    0.7224   -0.7037    0.6628 C   0  0  0  0  0  0  0  0  0  0  0  0
    3.3222    1.0511   -1.5726 S   0  0  0  0  0  0  0  0  0  0  0  0
   -1.5634    0.2112    0.2170 C   0  0  0  0  0  0  0  0  0  0  0  0
    3.3794    0.0898    0.8394 C   0  0  0  0  0  0  0  0  0  0  0  0
    4.2912    0.1217   -0.3224 C   0  0  0  0  0  0  0  0  0  0  0  0
   -2.5393    0.4950    1.1602 C   0  0  0  0  0  0  0  0  0  0  0  0
   -1.9057   -0.3732   -0.9825 C   0  0  0  0  0  0  0  0  0  0  0  0
   -3.8485    0.1811    0.8712 C   0  0  0  0  0  0  0  0  0  0  0  0
   -3.2370   -0.6764   -1.2403 C   0  0  0  0  0  0  0  0  0  0  0  0
   -4.2415   -0.4064   -0.3192 C   0  0  0  0  0  0  0  0  0  0  0  0
   -0.6854    0.0000    0.0000 H   0  0  0  0  0  0  0  0  0  0  0  0
    0.0091    1.1451    1.3695 H   0  0  0  0  0  0  0  0  0  0  0  0
    0.6182   -1.0966    1.6746 H   0  0  0  0  0  0  0  0  0  0  0  0
    0.5916   -1.4655   -0.1482 H   0  0  0  0  0  0  0  0  0  0  0  0
    3.6417   -0.7991    1.4707 H   0  0  0  0  0  0  0  0  0  0  0  0
    3.5891    0.9754    1.4785 H   0  0  0  0  0  0  0  0  0  0  0  0
    5.2101    0.7092   -0.0753 H   0  0  0  0  0  0  0  0  0  0  0  0
    4.5284   -0.8776   -0.6966 H   0  0  0  0  0  0  0  0  0  0  0  0
   -2.2785    0.9592    2.1162 H   0  0  0  0  0  0  0  0  0  0  0  0
   -1.1303   -0.5868   -1.7052 H   0  0  0  0  0  0  0  0  0  0  0  0
   -4.6367    0.3879    1.5828 H   0  0  0  0  0  0  0  0  0  0  0  0
   -3.4366   -1.1344   -2.2019 H   0  0  0  0  0  0  0  0  0  0  0  0
   -5.2632   -0.6524   -0.5467 H   0  0  0  0  0  0  0  0  0  0  0  0
  3  2  2  0
  4  2  1  0
  5  3  1  0
  6  4  1  0
  7  2  1  0
  5  8  1  0
  9  4  1  0
 10  7  1  0
 11  8  2  0
 12  8  1  0
 13 11  1  0
 14 12  2  0
 15 13  2  0
 10  9  1  0
  6  5  1  0
 14 15  1  0
  1 16  1  0
  5 17  1  1
  6 18  1  0
  6 19  1  0
  9 20  1  0
  9 21  1  0
 10 22  1  0
 10 23  1  0
 11 24  1  0
 12 25  1  0
 13 26  1  0
 14 27  1  0
 15 28  1  0
M  END
$$$$
