
     RDKit          3D

 28 29  0  0  0  0  0  0  0  0999 V2000
    0.6889    0.0000    0.0000 Cl  0  0  0  0  0  0  0  0  0  0  0  0
   -1.6306    1.1765    0.5325 C   0  0  0  0  0  0  0  0  0  0  0  0
   -0.5664    1.8359    0.2874 N   0  0  0  0  0  0  0  0  0  0  0  0
   -1.7133    0.0507   -0.3354 N   0  0  0  0  0  0  0  0  0  0  0  0
    0.2028    1.2104   -0.7996 C   0  0  2  0  0  0  0  0  0  0  0  0
   -0.8662    0.4317   -1.4828 C   0  0  0  0  0  0  0  0  0  0  0  0
   -3.1248    1.0837    1.5594 S   0  0  0  0  0  0  0  0  0  0  0  0
    1.3406    0.4515   -0.3002 C   0  0  0  0  0  0  0  0  0  0  0  0
   -2.5571   -0.9824    0.2261 C   0  0  0  0  0  0  0  0  0  0  0  0
   -3.8683   -0.2992    0.5892 C   0  0  0  0  0  0  0  0  0  0  0  0
    2.1293    1.0459    0.6914 C   0  0  0  0  0  0  0  0  0  0  0  0
    1.7264   -0.7998   -0.7040 C   0  0  0  0  0  0  0  0  0  0  0  0
    3.2257    0.4056    1.2245 C   0  0  0  0  0  0  0  0  0  0  0  0
    2.8395   -1.4503   -0.1631 C   0  0  0  0  0  0  0  0  0  0  0  0
    3.6009   -0.8440    0.8129 C   0  0  0  0  0  0  0  0  0  0  0  0
   -0.6889    0.0000    0.0000 H   0  0  0  0  0  0  0  0  0  0  0  0
    0.4957    2.0778   -1.4488 H   0  0  0  0  0  0  0  0  0  0  0  0
   -1.4973    1.1600   -2.0664 H   0  0  0  0  0  0  0  0  0  0  0  0
   -0.5565   -0.4170   -2.0849 H   0  0  0  0  0  0  0  0  0  0  0  0
   -2.1050   -1.3267    1.1885 H   0  0  0  0  0  0  0  0  0  0  0  0
   -2.6839   -1.7898   -0.4843 H   0  0  0  0  0  0  0  0  0  0  0  0
   -4.4908   -0.9256    1.2152 H   0  0  0  0  0  0  0  0  0  0  0  0
   -4.3179    0.0637   -0.3334 H   0  0  0  0  0  0  0  0  0  0  0  0
    1.8819    2.0481    1.0656 H   0  0  0  0  0  0  0  0  0  0  0  0
    1.1565   -1.2953   -1.4590 H   0  0  0  0  0  0  0  0  0  0  0  0
    3.8203    0.9083    2.0034 H   0  0  0  0  0  0  0  0  0  0  0  0
    3.1152   -2.4369   -0.5050 H   0  0  0  0  0  0  0  0  0  0  0  0
    4.4436   -1.3828    1.1957 H   0  0  0  0  0  0  0  0  0  0  0  0
  3  2  2  0
  4  2  1  0
  5  3  1  0
  6  4  1  0
  7  2  1  0
  5  8  1  0
  9  4  1  0
 10  7  1  0
 11  8  2  0
 12  8  1  0
 13 11  1  0
 14 12  2  0
 15 13  2  0
 10  9  1  0
  6  5  1  0
 14 15  1  0
  1 16  1  0
  5 17  1  6
  6 18  1  0
  6 19  1  0
  9 20  1  0
  9 21  1  0
 10 22  1  0
 10 23  1  0
 11 24  1  0
 12 25  1  0
 13 26  1  0
 14 27  1  0
 15 28  1  0
M  END
$$$$
