
     RDKit          3D

 57 56  0  0  0  0  0  0  0  0999 V2000
   -1.5624    0.1677   -0.4450 C   0  0  2  0  0  0  0  0  0  0  0  0
   -1.0435   -0.8877    0.5445 C   0  0  2  0  0  0  0  0  0  0  0  0
   -0.6417    1.4122   -0.3942 C   0  0  2  0  0  0  0  0  0  0  0  0
    0.7185    1.0676   -0.6072 O   0  0  0  0  0  0  0  0  0  0  0  0
    0.4346   -1.1872    0.2847 C   0  0  1  0  0  0  0  0  0  0  0  0
   -2.9892    0.4453   -0.1361 N   0  0  0  0  0  0  0  0  0  0  0  0
    1.2358    0.1190    0.3476 C   0  0  1  0  0  0  0  0  0  0  0  0
   -1.7991   -2.1036    0.4062 O   0  0  0  0  0  0  0  0  0  0  0  0
    0.8979   -2.1391    1.2460 O   0  0  0  0  0  0  0  0  0  0  0  0
   -0.7892    2.0829    0.8481 O   0  0  0  0  0  0  0  0  0  0  0  0
    2.7172   -0.1275    0.0309 C   0  0  0  0  0  0  0  0  0  0  0  0
    3.4728    1.0647    0.2655 O   0  0  0  0  0  0  0  0  0  0  0  0
   -1.2898    0.1166   -0.2258 C   0  0  2  0  0  0  0  0  0  0  0  0
   -0.5920   -1.2215   -0.5321 C   0  0  2  0  0  0  0  0  0  0  0  0
   -0.7345    0.6995    1.0910 C   0  0  1  0  0  0  0  0  0  0  0  0
    0.6424    1.0373    0.9764 O   0  0  0  0  0  0  0  0  0  0  0  0
    0.8177   -1.2998    0.0756 C   0  0  1  0  0  0  0  0  0  0  0  0
   -2.7654   -0.0305   -0.2810 N   0  0  0  0  0  0  0  0  0  0  0  0
    1.4617    0.0846    0.2606 C   0  0  1  0  0  0  0  0  0  0  0  0
   -0.5286   -1.3943   -1.9534 O   0  0  0  0  0  0  0  0  0  0  0  0
    0.7014   -1.9206    1.3712 O   0  0  0  0  0  0  0  0  0  0  0  0
   -1.4351    1.9039    1.3812 O   0  0  0  0  0  0  0  0  0  0  0  0
    1.8946    0.7186   -1.0690 C   0  0  0  0  0  0  0  0  0  0  0  0
    2.6091    1.9276   -0.8041 O   0  0  0  0  0  0  0  0  0  0  0  0
   -0.0733    0.3892    0.2201 S   0  0  0  0  0  0  0  0  0  0  0  0
   -0.6616    1.4814   -0.5122 O   0  0  0  0  0  0  0  0  0  0  0  0
    1.2364   -0.1004   -0.5662 O   0  0  0  0  0  0  0  0  0  0  0  0
   -1.0459   -0.8696    0.0151 O   0  0  0  0  0  0  0  0  0  0  0  0
    0.2905    0.4602    1.6124 O   0  0  0  0  0  0  0  0  0  0  0  0
   -1.5249   -0.2630   -1.4538 H   0  0  0  0  0  0  0  0  0  0  0  0
   -1.1778   -0.5610    1.5840 H   0  0  0  0  0  0  0  0  0  0  0  0
   -0.9391    2.1099   -1.1848 H   0  0  0  0  0  0  0  0  0  0  0  0
    0.5403   -1.6527   -0.7034 H   0  0  0  0  0  0  0  0  0  0  0  0
   -3.3453    1.1143   -0.8209 H   0  0  0  0  0  0  0  0  0  0  0  0
   -3.0027    0.9660    0.7490 H   0  0  0  0  0  0  0  0  0  0  0  0
    1.1805    0.5619    1.3506 H   0  0  0  0  0  0  0  0  0  0  0  0
   -2.7269   -1.7973    0.3185 H   0  0  0  0  0  0  0  0  0  0  0  0
    0.1878   -2.8123    1.2957 H   0  0  0  0  0  0  0  0  0  0  0  0
   -0.2180    2.8679    0.7683 H   0  0  0  0  0  0  0  0  0  0  0  0
    3.1361   -0.9152    0.6641 H   0  0  0  0  0  0  0  0  0  0  0  0
    2.8472   -0.3990   -1.0220 H   0  0  0  0  0  0  0  0  0  0  0  0
    4.3912    0.8662    0.0151 H   0  0  0  0  0  0  0  0  0  0  0  0
   -1.0605    0.8273   -1.0296 H   0  0  0  0  0  0  0  0  0  0  0  0
   -1.1877   -2.0571   -0.1417 H   0  0  0  0  0  0  0  0  0  0  0  0
   -0.8871    0.0145    1.9322 H   0  0  0  0  0  0  0  0  0  0  0  0
    1.4625   -1.9454   -0.5316 H   0  0  0  0  0  0  0  0  0  0  0  0
   -3.1499    0.8945   -0.0553 H   0  0  0  0  0  0  0  0  0  0  0  0
   -3.0690   -0.6193    0.4966 H   0  0  0  0  0  0  0  0  0  0  0  0
    2.3564   -0.0226    0.8869 H   0  0  0  0  0  0  0  0  0  0  0  0
   -1.4470   -1.2689   -2.2681 H   0  0  0  0  0  0  0  0  0  0  0  0
    1.6042   -2.1046    1.6887 H   0  0  0  0  0  0  0  0  0  0  0  0
   -1.0640    2.2017    2.2288 H   0  0  0  0  0  0  0  0  0  0  0  0
    2.5556    0.0503   -1.6286 H   0  0  0  0  0  0  0  0  0  0  0  0
    1.0451    0.9828   -1.7021 H   0  0  0  0  0  0  0  0  0  0  0  0
    2.0599    2.4254   -0.1670 H   0  0  0  0  0  0  0  0  0  0  0  0
    1.7719   -0.6264    0.0635 H   0  0  0  0  0  0  0  0  0  0  0  0
   -1.5180   -0.7344   -0.8328 H   0  0  0  0  0  0  0  0  0  0  0  0
  2  1  1  0
  3  1  1  0
  4  3  1  0
  5  2  1  0
  1  6  1  0
  7  4  1  0
  2  8  1  0
  5  9  1  0
  3 10  1  0
  7 11  1  0
 12 11  1  0
  5  7  1  0
 14 13  1  0
 15 13  1  0
 16 15  1  0
 17 14  1  0
 13 18  1  0
 19 16  1  0
 14 20  1  0
 17 21  1  0
 15 22  1  0
 19 23  1  0
 24 23  1  0
 17 19  1  0
 25 26  2  0
 25 27  1  0
 25 28  1  0
 25 29  2  0
  1 30  1  6
  2 31  1  1
  3 32  1  6
  5 33  1  6
  6 34  1  0
  6 35  1  0
  7 36  1  1
  8 37  1  0
  9 38  1  0
 10 39  1  0
 11 40  1  0
 11 41  1  0
 12 42  1  0
 13 43  1  6
 14 44  1  1
 15 45  1  1
 17 46  1  6
 18 47  1  0
 18 48  1  0
 19 49  1  1
 20 50  1  0
 21 51  1  0
 22 52  1  0
 23 53  1  0
 23 54  1  0
 24 55  1  0
 27 56  1  0
 28 57  1  0
M  END
$$$$
