
     RDKit          3D

 29 28  0  0  0  0  0  0  0  0999 V2000
   -1.3235    0.9486   -0.0617 C   0  0  2  0  0  0  0  0  0  0  0  0
   -1.3567   -0.5063   -0.4339 C   0  0  2  0  0  0  0  0  0  0  0  0
    0.0966    1.4228   -0.3059 C   0  0  0  0  0  0  0  0  0  0  0  0
    0.9170    0.8099    0.6157 O   0  0  0  0  0  0  0  0  0  0  0  0
   -0.1795   -1.2944    0.0416 C   0  0  1  0  0  0  0  0  0  0  0  0
   -1.7581    1.1498    1.2978 N   0  0  0  0  0  0  0  0  0  0  0  0
    0.9388   -0.5363    0.6121 C   0  0  1  0  0  0  0  0  0  0  0  0
   -1.5947   -0.6884   -1.7748 O   0  0  0  0  0  0  0  0  0  0  0  0
   -0.6298   -2.2231    1.0057 O   0  0  0  0  0  0  0  0  0  0  0  0
    0.0965    2.8036   -0.0071 O   0  0  0  0  0  0  0  0  0  0  0  0
    2.2478   -1.1421    0.1562 C   0  0  0  0  0  0  0  0  0  0  0  0
    2.5456   -0.7442   -1.1459 O   0  0  0  0  0  0  0  0  0  0  0  0
   -1.3722   -0.5475    0.3785 C   0  0  2  0  0  0  0  0  0  0  0  0
   -1.1926    0.9134    0.1156 C   0  0  2  0  0  0  0  0  0  0  0  0
   -0.5243   -1.3044   -0.5854 C   0  0  0  0  0  0  0  0  0  0  0  0
    0.4162   -0.5436   -1.2360 O   0  0  0  0  0  0  0  0  0  0  0  0
    0.2588    1.1775    0.4691 C   0  0  1  0  0  0  0  0  0  0  0  0
   -2.7281   -0.9815    0.5073 N   0  0  0  0  0  0  0  0  0  0  0  0
    1.0788    0.3861   -0.4880 C   0  0  1  0  0  0  0  0  0  0  0  0
   -2.0619    1.7318    0.8221 O   0  0  0  0  0  0  0  0  0  0  0  0
    0.5771    2.5211    0.5331 O   0  0  0  0  0  0  0  0  0  0  0  0
    0.0751   -2.3688    0.0608 O   0  0  0  0  0  0  0  0  0  0  0  0
    2.2928   -0.2393    0.1724 C   0  0  0  0  0  0  0  0  0  0  0  0
    3.1802   -0.7448   -0.7496 O   0  0  0  0  0  0  0  0  0  0  0  0
   -0.0054   -0.0343    0.0153 S   0  0  0  0  0  0  0  0  0  0  0  0
    0.1016   -0.8993   -1.2094 O   0  0  0  0  0  0  0  0  0  0  0  0
   -1.3496    0.9562   -0.1240 O   0  0  0  0  0  0  0  0  0  0  0  0
    1.4080    0.8881    0.1013 O   0  0  0  0  0  0  0  0  0  0  0  0
   -0.1545   -0.9106    1.2167 O   0  0  0  0  0  0  0  0  0  0  0  0
  2  1  1  0
  3  1  1  0
  4  3  1  0
  5  2  1  0
  1  6  1  1
  7  4  1  0
  2  8  1  6
  5  9  1  1
  3 10  1  0
  7 11  1  6
 12 11  1  0
  5  7  1  0
 14 13  1  0
 15 13  1  0
 16 15  1  0
 17 14  1  0
 13 18  1  6
 19 16  1  0
 14 20  1  1
 17 21  1  6
 15 22  1  0
 19 23  1  1
 24 23  1  0
 17 19  1  0
 25 26  2  0
 25 27  1  0
 25 28  1  0
 25 29  2  0
M  END
