
     RDKit          3D

 57 56  0  0  0  0  0  0  0  0999 V2000
   -1.4970    0.3218    0.3463 C   0  0  2  0  0  0  0  0  0  0  0  0
   -0.7868   -1.0488    0.2279 C   0  0  2  0  0  0  0  0  0  0  0  0
   -0.4152    1.4144    0.5565 C   0  0  2  0  0  0  0  0  0  0  0  0
    0.5248    1.4271   -0.5155 O   0  0  0  0  0  0  0  0  0  0  0  0
    0.2465   -0.9822   -0.8987 C   0  0  1  0  0  0  0  0  0  0  0  0
   -2.5301    0.3460    1.4056 N   0  0  0  0  0  0  0  0  0  0  0  0
    1.2285    0.1818   -0.6683 C   0  0  1  0  0  0  0  0  0  0  0  0
   -1.7161   -2.0989   -0.0765 O   0  0  0  0  0  0  0  0  0  0  0  0
    0.9244   -2.2200   -1.0125 O   0  0  0  0  0  0  0  0  0  0  0  0
    0.2648    1.2328    1.7933 O   0  0  0  0  0  0  0  0  0  0  0  0
    2.2215    0.3363   -1.8362 C   0  0  0  0  0  0  0  0  0  0  0  0
    3.0826    1.4435   -1.5827 O   0  0  0  0  0  0  0  0  0  0  0  0
    1.0758    0.4339   -1.1025 C   0  0  2  0  0  0  0  0  0  0  0  0
    0.9013    1.0933    0.2725 C   0  0  2  0  0  0  0  0  0  0  0  0
    0.6925   -1.0663   -1.0139 C   0  0  1  0  0  0  0  0  0  0  0  0
   -0.6175   -1.2468   -0.5187 O   0  0  0  0  0  0  0  0  0  0  0  0
   -0.5154    0.8424    0.8027 C   0  0  1  0  0  0  0  0  0  0  0  0
    2.4435    0.6183   -1.6220 N   0  0  0  0  0  0  0  0  0  0  0  0
   -0.8685   -0.6521    0.7665 C   0  0  1  0  0  0  0  0  0  0  0  0
    1.0940    2.5184    0.2272 O   0  0  0  0  0  0  0  0  0  0  0  0
   -0.6107    1.3581    2.1339 O   0  0  0  0  0  0  0  0  0  0  0  0
    0.6996   -1.5993   -2.3260 O   0  0  0  0  0  0  0  0  0  0  0  0
   -2.3778   -0.8493    1.0340 C   0  0  0  0  0  0  0  0  0  0  0  0
   -2.6869   -2.2395    1.0948 O   0  0  0  0  0  0  0  0  0  0  0  0
   -0.0335   -0.4864   -0.0167 S   0  0  0  0  0  0  0  0  0  0  0  0
   -0.0515   -0.9166    1.3552 O   0  0  0  0  0  0  0  0  0  0  0  0
   -0.7669    0.9389   -0.0372 O   0  0  0  0  0  0  0  0  0  0  0  0
    1.4638   -0.0533   -0.3930 O   0  0  0  0  0  0  0  0  0  0  0  0
   -0.5748   -1.2705   -1.1035 O   0  0  0  0  0  0  0  0  0  0  0  0
   -2.0142    0.5155   -0.6089 H   0  0  0  0  0  0  0  0  0  0  0  0
   -0.3057   -1.3304    1.1738 H   0  0  0  0  0  0  0  0  0  0  0  0
   -0.9020    2.4049    0.5698 H   0  0  0  0  0  0  0  0  0  0  0  0
   -0.2810   -0.8396   -1.8444 H   0  0  0  0  0  0  0  0  0  0  0  0
   -3.2581   -0.3533    1.2420 H   0  0  0  0  0  0  0  0  0  0  0  0
   -2.0890    0.1122    2.2898 H   0  0  0  0  0  0  0  0  0  0  0  0
    1.8179    0.0145    0.2450 H   0  0  0  0  0  0  0  0  0  0  0  0
   -2.3072   -2.1851    0.6873 H   0  0  0  0  0  0  0  0  0  0  0  0
    0.2191   -2.9045   -1.0098 H   0  0  0  0  0  0  0  0  0  0  0  0
    0.5199    2.1305    2.0658 H   0  0  0  0  0  0  0  0  0  0  0  0
    2.8407   -0.5686   -1.9704 H   0  0  0  0  0  0  0  0  0  0  0  0
    1.6910    0.5515   -2.7757 H   0  0  0  0  0  0  0  0  0  0  0  0
    2.5209    2.0986   -1.1229 H   0  0  0  0  0  0  0  0  0  0  0  0
    0.3925    0.9084   -1.8060 H   0  0  0  0  0  0  0  0  0  0  0  0
    1.6335    0.7081    0.9927 H   0  0  0  0  0  0  0  0  0  0  0  0
    1.4043   -1.6292   -0.4082 H   0  0  0  0  0  0  0  0  0  0  0  0
   -1.2347    1.4099    0.1986 H   0  0  0  0  0  0  0  0  0  0  0  0
    2.5637    0.0102   -2.4436 H   0  0  0  0  0  0  0  0  0  0  0  0
    2.5808    1.5602   -1.9717 H   0  0  0  0  0  0  0  0  0  0  0  0
   -0.3055   -1.2154    1.5251 H   0  0  0  0  0  0  0  0  0  0  0  0
    1.6318    2.7152   -0.5564 H   0  0  0  0  0  0  0  0  0  0  0  0
   -0.4238    2.3025    2.0500 H   0  0  0  0  0  0  0  0  0  0  0  0
    0.3787   -2.5123   -2.2134 H   0  0  0  0  0  0  0  0  0  0  0  0
   -2.9656   -0.4230    0.2154 H   0  0  0  0  0  0  0  0  0  0  0  0
   -2.6994   -0.3983    1.9787 H   0  0  0  0  0  0  0  0  0  0  0  0
   -2.1862   -2.6475    0.3648 H   0  0  0  0  0  0  0  0  0  0  0  0
   -1.5692    0.8710    0.5129 H   0  0  0  0  0  0  0  0  0  0  0  0
    1.5321    0.9168   -0.3176 H   0  0  0  0  0  0  0  0  0  0  0  0
  2  1  1  0
  3  1  1  0
  4  3  1  0
  5  2  1  0
  1  6  1  0
  7  4  1  0
  2  8  1  0
  5  9  1  0
  3 10  1  0
  7 11  1  0
 12 11  1  0
  5  7  1  0
 14 13  1  0
 15 13  1  0
 16 15  1  0
 17 14  1  0
 13 18  1  0
 19 16  1  0
 14 20  1  0
 17 21  1  0
 15 22  1  0
 19 23  1  0
 24 23  1  0
 17 19  1  0
 25 26  2  0
 25 27  1  0
 25 28  1  0
 25 29  2  0
  1 30  1  6
  2 31  1  1
  3 32  1  1
  5 33  1  6
  6 34  1  0
  6 35  1  0
  7 36  1  1
  8 37  1  0
  9 38  1  0
 10 39  1  0
 11 40  1  0
 11 41  1  0
 12 42  1  0
 13 43  1  6
 14 44  1  1
 15 45  1  1
 17 46  1  6
 18 47  1  0
 18 48  1  0
 19 49  1  1
 20 50  1  0
 21 51  1  0
 22 52  1  0
 23 53  1  0
 23 54  1  0
 24 55  1  0
 27 56  1  0
 28 57  1  0
M  END
$$$$
