
     RDKit          3D

 57 56  0  0  0  0  0  0  0  0999 V2000
    1.5643    0.4112   -0.2384 C   0  0  2  0  0  0  0  0  0  0  0  0
    0.4540    1.1029    0.5838 C   0  0  2  0  0  0  0  0  0  0  0  0
    1.0672   -0.9593   -0.7879 C   0  0  2  0  0  0  0  0  0  0  0  0
    0.2019   -1.5817    0.1503 O   0  0  0  0  0  0  0  0  0  0  0  0
   -0.9229    0.6390    0.1066 C   0  0  1  0  0  0  0  0  0  0  0  0
    2.8077    0.2662    0.5665 N   0  0  0  0  0  0  0  0  0  0  0  0
   -1.0395   -0.8836    0.3360 C   0  0  1  0  0  0  0  0  0  0  0  0
    0.5459    2.5318    0.4983 O   0  0  0  0  0  0  0  0  0  0  0  0
   -1.9709    1.3252    0.7963 O   0  0  0  0  0  0  0  0  0  0  0  0
    2.1753   -1.8045   -1.0564 O   0  0  0  0  0  0  0  0  0  0  0  0
   -2.1497   -1.4908   -0.5346 C   0  0  0  0  0  0  0  0  0  0  0  0
   -3.4338   -0.9451   -0.2480 O   0  0  0  0  0  0  0  0  0  0  0  0
   -1.6210    0.1764    0.1271 C   0  0  2  0  0  0  0  0  0  0  0  0
   -0.6880   -0.7851    0.8846 C   0  0  2  0  0  0  0  0  0  0  0  0
   -0.7946    1.4006   -0.3616 C   0  0  1  0  0  0  0  0  0  0  0  0
    0.3393    0.9974   -1.1164 O   0  0  0  0  0  0  0  0  0  0  0  0
    0.5567   -1.1195    0.0551 C   0  0  1  0  0  0  0  0  0  0  0  0
   -2.7876    0.5443    0.9633 N   0  0  0  0  0  0  0  0  0  0  0  0
    1.2522    0.1738   -0.3788 C   0  0  1  0  0  0  0  0  0  0  0  0
   -1.3513   -2.0172    1.2110 O   0  0  0  0  0  0  0  0  0  0  0  0
    1.4301   -1.9280    0.8492 O   0  0  0  0  0  0  0  0  0  0  0  0
   -1.5887    2.1992   -1.2233 O   0  0  0  0  0  0  0  0  0  0  0  0
    2.4685   -0.1266   -1.2694 C   0  0  0  0  0  0  0  0  0  0  0  0
    3.2220    1.0615   -1.5279 O   0  0  0  0  0  0  0  0  0  0  0  0
    0.0269    0.3685    0.2663 S   0  0  0  0  0  0  0  0  0  0  0  0
   -0.5188    1.6055   -0.2314 O   0  0  0  0  0  0  0  0  0  0  0  0
   -1.1435   -0.7225    0.1503 O   0  0  0  0  0  0  0  0  0  0  0  0
    1.0775   -0.1899   -0.8098 O   0  0  0  0  0  0  0  0  0  0  0  0
    0.6521    0.2284    1.5566 O   0  0  0  0  0  0  0  0  0  0  0  0
    1.8517    1.0298   -1.0972 H   0  0  0  0  0  0  0  0  0  0  0  0
    0.5495    0.8660    1.6513 H   0  0  0  0  0  0  0  0  0  0  0  0
    0.5369   -0.8229   -1.7376 H   0  0  0  0  0  0  0  0  0  0  0  0
   -1.0392    0.8921   -0.9546 H   0  0  0  0  0  0  0  0  0  0  0  0
    3.0595    1.1871    0.9368 H   0  0  0  0  0  0  0  0  0  0  0  0
    2.5962   -0.2980    1.3957 H   0  0  0  0  0  0  0  0  0  0  0  0
   -1.3300   -1.0494    1.3816 H   0  0  0  0  0  0  0  0  0  0  0  0
    0.6551    2.7866   -0.4356 H   0  0  0  0  0  0  0  0  0  0  0  0
   -1.6225    2.2168    1.0059 H   0  0  0  0  0  0  0  0  0  0  0  0
    2.8954   -1.4504   -0.4960 H   0  0  0  0  0  0  0  0  0  0  0  0
   -1.9380   -1.3321   -1.5975 H   0  0  0  0  0  0  0  0  0  0  0  0
   -2.1976   -2.5745   -0.3844 H   0  0  0  0  0  0  0  0  0  0  0  0
   -3.3165   -0.0621    0.1590 H   0  0  0  0  0  0  0  0  0  0  0  0
   -2.0252   -0.3410   -0.7530 H   0  0  0  0  0  0  0  0  0  0  0  0
   -0.3755   -0.3445    1.8408 H   0  0  0  0  0  0  0  0  0  0  0  0
   -0.4737    2.0206    0.4847 H   0  0  0  0  0  0  0  0  0  0  0  0
    0.2647   -1.7134   -0.8201 H   0  0  0  0  0  0  0  0  0  0  0  0
   -2.5118    0.7801    1.9132 H   0  0  0  0  0  0  0  0  0  0  0  0
   -3.4618   -0.2161    0.9936 H   0  0  0  0  0  0  0  0  0  0  0  0
    1.6023    0.7393    0.4950 H   0  0  0  0  0  0  0  0  0  0  0  0
   -2.1710   -1.7800    1.6788 H   0  0  0  0  0  0  0  0  0  0  0  0
    0.8657   -2.6533    1.1878 H   0  0  0  0  0  0  0  0  0  0  0  0
   -0.9957    2.9110   -1.5134 H   0  0  0  0  0  0  0  0  0  0  0  0
    3.1447   -0.8509   -0.8051 H   0  0  0  0  0  0  0  0  0  0  0  0
    2.1480   -0.5186   -2.2400 H   0  0  0  0  0  0  0  0  0  0  0  0
    3.5518    1.3899   -0.6752 H   0  0  0  0  0  0  0  0  0  0  0  0
   -1.7311   -0.4392   -0.5806 H   0  0  0  0  0  0  0  0  0  0  0  0
    1.6368   -0.8509   -0.3514 H   0  0  0  0  0  0  0  0  0  0  0  0
  2  1  1  0
  3  1  1  0
  4  3  1  0
  5  2  1  0
  1  6  1  0
  7  4  1  0
  2  8  1  0
  5  9  1  0
  3 10  1  0
  7 11  1  0
 12 11  1  0
  5  7  1  0
 14 13  1  0
 15 13  1  0
 16 15  1  0
 17 14  1  0
 13 18  1  0
 19 16  1  0
 14 20  1  0
 17 21  1  0
 15 22  1  0
 19 23  1  0
 24 23  1  0
 17 19  1  0
 25 26  2  0
 25 27  1  0
 25 28  1  0
 25 29  2  0
  1 30  1  6
  2 31  1  1
  3 32  1  6
  5 33  1  6
  6 34  1  0
  6 35  1  0
  7 36  1  1
  8 37  1  0
  9 38  1  0
 10 39  1  0
 11 40  1  0
 11 41  1  0
 12 42  1  0
 13 43  1  6
 14 44  1  1
 15 45  1  1
 17 46  1  6
 18 47  1  0
 18 48  1  0
 19 49  1  1
 20 50  1  0
 21 51  1  0
 22 52  1  0
 23 53  1  0
 23 54  1  0
 24 55  1  0
 27 56  1  0
 28 57  1  0
M  END
$$$$
