
     RDKit          3D

 57 56  0  0  0  0  0  0  0  0999 V2000
   -1.0309    0.3497   -0.7455 C   0  0  2  0  0  0  0  0  0  0  0  0
   -0.9091   -0.8521    0.2237 C   0  0  2  0  0  0  0  0  0  0  0  0
   -0.3913    1.6024   -0.1206 C   0  0  2  0  0  0  0  0  0  0  0  0
    0.9887    1.4258    0.1539 O   0  0  0  0  0  0  0  0  0  0  0  0
    0.2358   -0.7061    1.2485 C   0  0  1  0  0  0  0  0  0  0  0  0
   -2.4595    0.5877   -1.0845 N   0  0  0  0  0  0  0  0  0  0  0  0
    1.3888    0.1863    0.7621 C   0  0  1  0  0  0  0  0  0  0  0  0
   -0.7526   -2.0505   -0.5579 O   0  0  0  0  0  0  0  0  0  0  0  0
   -0.2829   -0.1410    2.4700 O   0  0  0  0  0  0  0  0  0  0  0  0
   -1.0990    1.9691    1.0643 O   0  0  0  0  0  0  0  0  0  0  0  0
    2.3528   -0.5427   -0.1903 C   0  0  0  0  0  0  0  0  0  0  0  0
    1.6737   -1.1441   -1.2953 O   0  0  0  0  0  0  0  0  0  0  0  0
    1.5031   -0.4505   -0.2654 C   0  0  2  0  0  0  0  0  0  0  0  0
    1.0578    0.7663    0.5565 C   0  0  2  0  0  0  0  0  0  0  0  0
    0.4388   -1.5684   -0.1694 C   0  0  1  0  0  0  0  0  0  0  0  0
   -0.8454   -1.0989   -0.5562 O   0  0  0  0  0  0  0  0  0  0  0  0
   -0.3744    1.1852    0.1977 C   0  0  1  0  0  0  0  0  0  0  0  0
    2.8376   -0.9114    0.1854 N   0  0  0  0  0  0  0  0  0  0  0  0
   -1.3206   -0.0238    0.2691 C   0  0  1  0  0  0  0  0  0  0  0  0
    1.9488    1.8714    0.3268 O   0  0  0  0  0  0  0  0  0  0  0  0
   -0.7781    2.2326    1.0928 O   0  0  0  0  0  0  0  0  0  0  0  0
    0.7922   -2.6154   -1.0623 O   0  0  0  0  0  0  0  0  0  0  0  0
   -2.7309    0.3249   -0.2249 C   0  0  0  0  0  0  0  0  0  0  0  0
   -2.7117    0.6374   -1.6185 O   0  0  0  0  0  0  0  0  0  0  0  0
   -0.0131    0.3455    0.2560 S   0  0  0  0  0  0  0  0  0  0  0  0
   -0.9382    1.4033   -0.0634 O   0  0  0  0  0  0  0  0  0  0  0  0
    1.0735    0.2287   -0.9207 O   0  0  0  0  0  0  0  0  0  0  0  0
   -0.8276   -1.0259    0.0717 O   0  0  0  0  0  0  0  0  0  0  0  0
    0.7097    0.2650    1.5015 O   0  0  0  0  0  0  0  0  0  0  0  0
   -0.5130    0.1170   -1.6822 H   0  0  0  0  0  0  0  0  0  0  0  0
   -1.8475   -0.9806    0.7793 H   0  0  0  0  0  0  0  0  0  0  0  0
   -0.4725    2.4481   -0.8140 H   0  0  0  0  0  0  0  0  0  0  0  0
    0.6238   -1.6936    1.5233 H   0  0  0  0  0  0  0  0  0  0  0  0
   -2.8612   -0.3107   -1.3712 H   0  0  0  0  0  0  0  0  0  0  0  0
   -2.5060    1.1817   -1.9136 H   0  0  0  0  0  0  0  0  0  0  0  0
    1.9821    0.4890    1.6345 H   0  0  0  0  0  0  0  0  0  0  0  0
    0.1268   -1.9742   -0.9927 H   0  0  0  0  0  0  0  0  0  0  0  0
   -0.5483    0.7841    2.2664 H   0  0  0  0  0  0  0  0  0  0  0  0
   -2.0420    1.8179    0.8327 H   0  0  0  0  0  0  0  0  0  0  0  0
    2.8838   -1.3393    0.3392 H   0  0  0  0  0  0  0  0  0  0  0  0
    3.0857    0.1640   -0.5951 H   0  0  0  0  0  0  0  0  0  0  0  0
    2.3737   -1.3877   -1.9347 H   0  0  0  0  0  0  0  0  0  0  0  0
    1.6095   -0.1472   -1.3156 H   0  0  0  0  0  0  0  0  0  0  0  0
    1.1156    0.5442    1.6300 H   0  0  0  0  0  0  0  0  0  0  0  0
    0.3918   -1.9793    0.8465 H   0  0  0  0  0  0  0  0  0  0  0  0
   -0.3727    1.6150   -0.8118 H   0  0  0  0  0  0  0  0  0  0  0  0
    3.4797   -0.1222    0.0778 H   0  0  0  0  0  0  0  0  0  0  0  0
    3.1503   -1.6285   -0.4715 H   0  0  0  0  0  0  0  0  0  0  0  0
   -1.4071   -0.3753    1.3056 H   0  0  0  0  0  0  0  0  0  0  0  0
    1.4703    2.6732    0.6192 H   0  0  0  0  0  0  0  0  0  0  0  0
   -0.7356    1.9000    2.0072 H   0  0  0  0  0  0  0  0  0  0  0  0
    0.2552   -3.3753   -0.7915 H   0  0  0  0  0  0  0  0  0  0  0  0
   -3.1556    1.1731    0.3204 H   0  0  0  0  0  0  0  0  0  0  0  0
   -3.3974   -0.5365   -0.0999 H   0  0  0  0  0  0  0  0  0  0  0  0
   -2.2213   -0.0905   -2.0480 H   0  0  0  0  0  0  0  0  0  0  0  0
    1.7322   -0.4376   -0.6394 H   0  0  0  0  0  0  0  0  0  0  0  0
   -1.7365   -0.7789   -0.2057 H   0  0  0  0  0  0  0  0  0  0  0  0
  2  1  1  0
  3  1  1  0
  4  3  1  0
  5  2  1  0
  1  6  1  0
  7  4  1  0
  2  8  1  0
  5  9  1  0
  3 10  1  0
  7 11  1  0
 12 11  1  0
  5  7  1  0
 14 13  1  0
 15 13  1  0
 16 15  1  0
 17 14  1  0
 13 18  1  0
 19 16  1  0
 14 20  1  0
 17 21  1  0
 15 22  1  0
 19 23  1  0
 24 23  1  0
 17 19  1  0
 25 26  2  0
 25 27  1  0
 25 28  1  0
 25 29  2  0
  1 30  1  6
  2 31  1  1
  3 32  1  6
  5 33  1  1
  6 34  1  0
  6 35  1  0
  7 36  1  1
  8 37  1  0
  9 38  1  0
 10 39  1  0
 11 40  1  0
 11 41  1  0
 12 42  1  0
 13 43  1  6
 14 44  1  1
 15 45  1  1
 17 46  1  6
 18 47  1  0
 18 48  1  0
 19 49  1  1
 20 50  1  0
 21 51  1  0
 22 52  1  0
 23 53  1  0
 23 54  1  0
 24 55  1  0
 27 56  1  0
 28 57  1  0
M  END
$$$$
