
     RDKit          3D

 57 56  0  0  0  0  0  0  0  0999 V2000
   -1.7910    0.2681   -0.0878 C   0  0  2  0  0  0  0  0  0  0  0  0
   -1.1267   -1.0628    0.3033 C   0  0  2  0  0  0  0  0  0  0  0  0
   -0.9106    0.9998   -1.1345 C   0  0  2  0  0  0  0  0  0  0  0  0
    0.4153    1.2799   -0.6946 O   0  0  0  0  0  0  0  0  0  0  0  0
    0.3876   -1.0812    0.0309 C   0  0  1  0  0  0  0  0  0  0  0  0
   -2.0015    1.1253    1.1094 N   0  0  0  0  0  0  0  0  0  0  0  0
    0.9671    0.3299    0.2307 C   0  0  1  0  0  0  0  0  0  0  0  0
   -1.7353   -2.1474   -0.4143 O   0  0  0  0  0  0  0  0  0  0  0  0
    0.9663   -2.0892    0.8675 O   0  0  0  0  0  0  0  0  0  0  0  0
   -1.5212    2.2435   -1.4643 O   0  0  0  0  0  0  0  0  0  0  0  0
    2.4927    0.3741    0.0582 C   0  0  0  0  0  0  0  0  0  0  0  0
    3.1472   -0.5873    0.8850 O   0  0  0  0  0  0  0  0  0  0  0  0
   -1.6251    0.0417    0.1965 C   0  0  2  0  0  0  0  0  0  0  0  0
   -0.8448    0.8230   -0.8670 C   0  0  2  0  0  0  0  0  0  0  0  0
   -0.8350   -1.2385    0.5500 C   0  0  1  0  0  0  0  0  0  0  0  0
    0.4660   -0.9077    1.0129 O   0  0  0  0  0  0  0  0  0  0  0  0
    0.5914    1.0822   -0.3963 C   0  0  1  0  0  0  0  0  0  0  0  0
   -3.0170   -0.1883   -0.2601 N   0  0  0  0  0  0  0  0  0  0  0  0
    1.2536   -0.2497   -0.0002 C   0  0  1  0  0  0  0  0  0  0  0  0
   -1.4872    2.0794   -1.1370 O   0  0  0  0  0  0  0  0  0  0  0  0
    1.3112    1.7317   -1.4473 O   0  0  0  0  0  0  0  0  0  0  0  0
   -1.5088   -1.9164    1.5950 O   0  0  0  0  0  0  0  0  0  0  0  0
    2.6733   -0.0273    0.5467 C   0  0  0  0  0  0  0  0  0  0  0  0
    3.3412   -1.2867    0.6990 O   0  0  0  0  0  0  0  0  0  0  0  0
   -0.1771    0.4048   -0.0802 S   0  0  0  0  0  0  0  0  0  0  0  0
   -0.0408    0.9544   -1.4040 O   0  0  0  0  0  0  0  0  0  0  0  0
   -0.8222   -1.0570   -0.2068 O   0  0  0  0  0  0  0  0  0  0  0  0
    1.3047    0.0479    0.4167 O   0  0  0  0  0  0  0  0  0  0  0  0
   -0.8729    1.0646    0.9957 O   0  0  0  0  0  0  0  0  0  0  0  0
   -2.7804    0.0968   -0.5285 H   0  0  0  0  0  0  0  0  0  0  0  0
   -1.3208   -1.2807    1.3603 H   0  0  0  0  0  0  0  0  0  0  0  0
   -0.8529    0.4022   -2.0522 H   0  0  0  0  0  0  0  0  0  0  0  0
    0.5668   -1.4043   -1.0023 H   0  0  0  0  0  0  0  0  0  0  0  0
   -2.8368    0.8084    1.5990 H   0  0  0  0  0  0  0  0  0  0  0  0
   -2.2150    2.0654    0.7593 H   0  0  0  0  0  0  0  0  0  0  0  0
    0.7490    0.6624    1.2535 H   0  0  0  0  0  0  0  0  0  0  0  0
   -1.2699   -2.9505   -0.1041 H   0  0  0  0  0  0  0  0  0  0  0  0
    1.8962   -1.8177    1.0384 H   0  0  0  0  0  0  0  0  0  0  0  0
   -0.9616    2.6084   -2.1695 H   0  0  0  0  0  0  0  0  0  0  0  0
    2.8671    1.3730    0.3125 H   0  0  0  0  0  0  0  0  0  0  0  0
    2.7655    0.1796   -0.9859 H   0  0  0  0  0  0  0  0  0  0  0  0
    4.1027   -0.3959    0.8298 H   0  0  0  0  0  0  0  0  0  0  0  0
   -1.7071    0.6670    1.0941 H   0  0  0  0  0  0  0  0  0  0  0  0
   -0.8288    0.2765   -1.8200 H   0  0  0  0  0  0  0  0  0  0  0  0
   -0.7671   -1.9179   -0.3067 H   0  0  0  0  0  0  0  0  0  0  0  0
    0.5743    1.7714    0.4599 H   0  0  0  0  0  0  0  0  0  0  0  0
   -3.0160   -0.8827   -1.0048 H   0  0  0  0  0  0  0  0  0  0  0  0
   -3.4987   -0.6593    0.5146 H   0  0  0  0  0  0  0  0  0  0  0  0
    1.3292   -0.9194   -0.8714 H   0  0  0  0  0  0  0  0  0  0  0  0
   -2.4454    1.8746   -1.1021 H   0  0  0  0  0  0  0  0  0  0  0  0
    0.7130    2.4461   -1.7614 H   0  0  0  0  0  0  0  0  0  0  0  0
   -0.8406   -2.5475    1.9369 H   0  0  0  0  0  0  0  0  0  0  0  0
    3.2722    0.5808   -0.1373 H   0  0  0  0  0  0  0  0  0  0  0  0
    2.6423    0.4538    1.5328 H   0  0  0  0  0  0  0  0  0  0  0  0
    4.2539   -1.0867    0.9732 H   0  0  0  0  0  0  0  0  0  0  0  0
   -1.2297   -1.2655    0.6599 H   0  0  0  0  0  0  0  0  0  0  0  0
    1.8380   -0.1491   -0.3813 H   0  0  0  0  0  0  0  0  0  0  0  0
  2  1  1  0
  3  1  1  0
  4  3  1  0
  5  2  1  0
  1  6  1  0
  7  4  1  0
  2  8  1  0
  5  9  1  0
  3 10  1  0
  7 11  1  0
 12 11  1  0
  5  7  1  0
 14 13  1  0
 15 13  1  0
 16 15  1  0
 17 14  1  0
 13 18  1  0
 19 16  1  0
 14 20  1  0
 17 21  1  0
 15 22  1  0
 19 23  1  0
 24 23  1  0
 17 19  1  0
 25 26  2  0
 25 27  1  0
 25 28  1  0
 25 29  2  0
  1 30  1  6
  2 31  1  1
  3 32  1  6
  5 33  1  6
  6 34  1  0
  6 35  1  0
  7 36  1  1
  8 37  1  0
  9 38  1  0
 10 39  1  0
 11 40  1  0
 11 41  1  0
 12 42  1  0
 13 43  1  1
 14 44  1  6
 15 45  1  6
 17 46  1  1
 18 47  1  0
 18 48  1  0
 19 49  1  6
 20 50  1  0
 21 51  1  0
 22 52  1  0
 23 53  1  0
 23 54  1  0
 24 55  1  0
 27 56  1  0
 28 57  1  0
M  END
$$$$
