
     RDKit          3D

 43 46  0  0  0  0  0  0  0  0999 V2000
   -0.3771    0.0830    0.2461 C   0  0  0  0  0  0  0  0  0  0  0  0
   -1.4264   -0.9463    0.3590 C   0  0  0  0  0  0  0  0  0  0  0  0
   -0.8514    1.4672    0.4264 C   0  0  0  0  0  0  0  0  0  0  0  0
    0.9173   -0.2169   -0.0591 C   0  0  0  0  0  0  0  0  0  0  0  0
   -2.6304   -0.0170   -1.6785 C   0  0  0  0  0  0  0  0  0  0  0  0
   -2.3192    1.2890   -1.6420 C   0  0  0  0  0  0  0  0  0  0  0  0
    3.6182   -0.8352   -0.9621 N   0  0  0  0  0  0  0  0  0  0  0  0
   -1.7899    2.0266   -0.4682 C   0  0  0  0  0  0  0  0  0  0  0  0
   -2.5050   -0.9748   -0.5520 C   0  0  0  0  0  0  0  0  0  0  0  0
    1.9803    0.8658   -0.1081 C   0  0  0  0  0  0  0  0  0  0  0  0
    1.3788   -1.6581   -0.1788 C   0  0  0  0  0  0  0  0  0  0  0  0
    3.1087    0.5407   -1.0968 C   0  0  0  0  0  0  0  0  0  0  0  0
    2.5451   -1.8244   -1.1632 C   0  0  0  0  0  0  0  0  0  0  0  0
   -1.3701   -1.8846    1.4038 C   0  0  0  0  0  0  0  0  0  0  0  0
   -0.3915    2.2228    1.5185 C   0  0  0  0  0  0  0  0  0  0  0  0
    4.3682   -1.0489    0.2873 C   0  0  0  0  0  0  0  0  0  0  0  0
   -2.1908    3.3615   -0.2890 C   0  0  0  0  0  0  0  0  0  0  0  0
   -3.4665   -1.9933   -0.4386 C   0  0  0  0  0  0  0  0  0  0  0  0
   -0.8188    3.5395    1.6951 C   0  0  0  0  0  0  0  0  0  0  0  0
   -2.3469   -2.8749    1.5159 C   0  0  0  0  0  0  0  0  0  0  0  0
   -1.7115    4.1106    0.7883 C   0  0  0  0  0  0  0  0  0  0  0  0
   -3.3897   -2.9338    0.5914 C   0  0  0  0  0  0  0  0  0  0  0  0
   -3.1077   -0.3809   -2.5811 H   0  0  0  0  0  0  0  0  0  0  0  0
   -2.5700    1.8761   -2.5181 H   0  0  0  0  0  0  0  0  0  0  0  0
    1.5506    1.8380   -0.4302 H   0  0  0  0  0  0  0  0  0  0  0  0
    2.3992    1.0066    0.9105 H   0  0  0  0  0  0  0  0  0  0  0  0
    1.6766   -2.0264    0.8255 H   0  0  0  0  0  0  0  0  0  0  0  0
    0.5613   -2.3138   -0.5465 H   0  0  0  0  0  0  0  0  0  0  0  0
    2.7320    0.6863   -2.1337 H   0  0  0  0  0  0  0  0  0  0  0  0
    3.9384    1.2688   -0.9610 H   0  0  0  0  0  0  0  0  0  0  0  0
    2.9558   -2.8544   -1.0766 H   0  0  0  0  0  0  0  0  0  0  0  0
    2.1563   -1.7294   -2.2014 H   0  0  0  0  0  0  0  0  0  0  0  0
   -0.5654   -1.8504    2.1280 H   0  0  0  0  0  0  0  0  0  0  0  0
    0.3023    1.7915    2.2297 H   0  0  0  0  0  0  0  0  0  0  0  0
    3.7272   -0.9212    1.1842 H   0  0  0  0  0  0  0  0  0  0  0  0
    5.2147   -0.3323    0.3485 H   0  0  0  0  0  0  0  0  0  0  0  0
    4.7999   -2.0723    0.2998 H   0  0  0  0  0  0  0  0  0  0  0  0
   -2.8882    3.8216   -0.9788 H   0  0  0  0  0  0  0  0  0  0  0  0
   -4.2876   -2.0527   -1.1430 H   0  0  0  0  0  0  0  0  0  0  0  0
   -0.4545    4.1188    2.5336 H   0  0  0  0  0  0  0  0  0  0  0  0
   -2.2933   -3.5996    2.3180 H   0  0  0  0  0  0  0  0  0  0  0  0
   -2.0363    5.1344    0.9220 H   0  0  0  0  0  0  0  0  0  0  0  0
   -4.1425   -3.7069    0.6750 H   0  0  0  0  0  0  0  0  0  0  0  0
  2  1  1  0
  3  1  1  0
  4  1  2  3
  5  9  1  0
  6  8  1  0
  7 13  1  0
  8  3  2  0
  9  2  2  0
 10  4  1  0
 11  4  1  0
 12 10  1  0
 13 11  1  0
 14  2  1  0
 15  3  1  0
 16  7  1  0
 17  8  1  0
 18  9  1  0
 19 15  2  0
 20 14  2  0
 21 19  1  0
 22 20  1  0
  7 12  1  0
  6  5  2  0
 21 17  2  0
 22 18  2  0
  5 23  1  0
  6 24  1  0
 10 25  1  0
 10 26  1  0
 11 27  1  0
 11 28  1  0
 12 29  1  0
 12 30  1  0
 13 31  1  0
 13 32  1  0
 14 33  1  0
 15 34  1  0
 16 35  1  0
 16 36  1  0
 16 37  1  0
 17 38  1  0
 18 39  1  0
 19 40  1  0
 20 41  1  0
 21 42  1  0
 22 43  1  0
M  END
$$$$
