
     RDKit          3D

 23 25  0  0  0  0  0  0  0  0999 V2000
    0.0000    0.0000    0.0000 Cl  0  0  0  0  0  0  0  0  0  0  0  0
   -0.1230   -0.0205   -0.0318 C   0  0  0  0  0  0  0  0  0  0  0  0
   -1.1716   -1.0241    0.0576 C   0  0  0  0  0  0  0  0  0  0  0  0
   -0.2759    1.4275   -0.1130 C   0  0  0  0  0  0  0  0  0  0  0  0
    1.1062   -0.4635   -0.0408 C   0  0  0  0  0  0  0  0  0  0  0  0
   -3.2906    0.4735    0.0926 C   0  0  0  0  0  0  0  0  0  0  0  0
   -2.8241    1.7181    0.0053 C   0  0  0  0  0  0  0  0  0  0  0  0
    3.8218   -1.3422    0.3246 N   0  0  0  0  0  0  0  0  0  0  0  0
   -1.4461    2.1932   -0.0977 C   0  0  0  0  0  0  0  0  0  0  0  0
   -2.5476   -0.7987    0.1112 C   0  0  0  0  0  0  0  0  0  0  0  0
    1.4320   -1.9055    0.0352 C   0  0  0  0  0  0  0  0  0  0  0  0
    2.2536    0.4858   -0.1297 C   0  0  0  0  0  0  0  0  0  0  0  0
    2.8506   -2.0509   -0.4470 C   0  0  0  0  0  0  0  0  0  0  0  0
    3.4027   -0.0212    0.7512 C   0  0  0  0  0  0  0  0  0  0  0  0
   -0.7001   -2.3167    0.0894 C   0  0  0  0  0  0  0  0  0  0  0  0
    0.9468    2.0255   -0.2152 C   0  0  0  0  0  0  0  0  0  0  0  0
    4.9747   -1.1067   -0.5581 C   0  0  0  0  0  0  0  0  0  0  0  0
   -1.3625    3.5682   -0.1871 C   0  0  0  0  0  0  0  0  0  0  0  0
   -3.4313   -1.8463    0.1948 C   0  0  0  0  0  0  0  0  0  0  0  0
    1.0684    3.4053   -0.3069 C   0  0  0  0  0  0  0  0  0  0  0  0
   -1.6126   -3.3716    0.1746 C   0  0  0  0  0  0  0  0  0  0  0  0
   -0.1003    4.1185   -0.2885 C   0  0  0  0  0  0  0  0  0  0  0  0
   -2.9712   -3.1476    0.2274 C   0  0  0  0  0  0  0  0  0  0  0  0
  3  2  1  0
  4  2  1  0
  5  2  2  0
  6 10  1  0
  7  9  1  0
  8 14  1  0
  9  4  2  0
 10  3  2  0
 11  5  1  0
 12  5  1  0
 13 11  1  0
 14 12  1  0
 15  3  1  0
 16  4  1  0
 17  8  1  0
 18  9  1  0
 19 10  1  0
 20 16  2  0
 21 15  2  0
 22 20  1  0
 23 21  1  0
  8 13  1  0
  7  6  2  0
 22 18  2  0
 23 19  2  0
M  END
