
     RDKit          3D

 43 46  0  0  0  0  0  0  0  0999 V2000
   -0.5586   -0.1827    0.2580 C   0  0  0  0  0  0  0  0  0  0  0  0
   -1.2516   -1.2699   -0.4566 C   0  0  0  0  0  0  0  0  0  0  0  0
   -1.4326    0.9185    0.7011 C   0  0  0  0  0  0  0  0  0  0  0  0
    0.7913   -0.1697    0.4445 C   0  0  0  0  0  0  0  0  0  0  0  0
   -1.9135    0.3139   -2.3323 C   0  0  0  0  0  0  0  0  0  0  0  0
   -2.0114    1.4978   -1.7059 C   0  0  0  0  0  0  0  0  0  0  0  0
    3.6583   -0.0305    0.6297 N   0  0  0  0  0  0  0  0  0  0  0  0
   -2.1346    1.7016   -0.2412 C   0  0  0  0  0  0  0  0  0  0  0  0
   -1.9096   -1.0193   -1.6807 C   0  0  0  0  0  0  0  0  0  0  0  0
    1.4681    0.9350    1.2373 C   0  0  0  0  0  0  0  0  0  0  0  0
    1.6568   -1.3470    0.0299 C   0  0  0  0  0  0  0  0  0  0  0  0
    2.8829    1.2185    0.7274 C   0  0  0  0  0  0  0  0  0  0  0  0
    3.0584   -0.9029   -0.3951 C   0  0  0  0  0  0  0  0  0  0  0  0
   -1.2879   -2.5578    0.1047 C   0  0  0  0  0  0  0  0  0  0  0  0
   -1.5959    1.1662    2.0749 C   0  0  0  0  0  0  0  0  0  0  0  0
    5.0523    0.2743    0.2716 C   0  0  0  0  0  0  0  0  0  0  0  0
   -2.9295    2.7671    0.2146 C   0  0  0  0  0  0  0  0  0  0  0  0
   -2.5280   -2.0870   -2.3534 C   0  0  0  0  0  0  0  0  0  0  0  0
   -2.4085    2.2135    2.5110 C   0  0  0  0  0  0  0  0  0  0  0  0
   -1.9275   -3.6015   -0.5654 C   0  0  0  0  0  0  0  0  0  0  0  0
   -3.0685    3.0176    1.5819 C   0  0  0  0  0  0  0  0  0  0  0  0
   -2.5404   -3.3680   -1.7964 C   0  0  0  0  0  0  0  0  0  0  0  0
   -1.9390    0.3303   -3.4159 H   0  0  0  0  0  0  0  0  0  0  0  0
   -2.1082    2.3765   -2.3334 H   0  0  0  0  0  0  0  0  0  0  0  0
    0.9058    1.8906    1.1760 H   0  0  0  0  0  0  0  0  0  0  0  0
    1.5171    0.6270    2.3039 H   0  0  0  0  0  0  0  0  0  0  0  0
    1.7383   -2.0471    0.8890 H   0  0  0  0  0  0  0  0  0  0  0  0
    1.2193   -1.8984   -0.8289 H   0  0  0  0  0  0  0  0  0  0  0  0
    3.3706    1.9147    1.4458 H   0  0  0  0  0  0  0  0  0  0  0  0
    2.8273    1.7334   -0.2600 H   0  0  0  0  0  0  0  0  0  0  0  0
    3.6793   -1.8168   -0.5286 H   0  0  0  0  0  0  0  0  0  0  0  0
    3.0025   -0.3833   -1.3800 H   0  0  0  0  0  0  0  0  0  0  0  0
   -0.8145   -2.7528    1.0593 H   0  0  0  0  0  0  0  0  0  0  0  0
   -1.0877    0.5502    2.8067 H   0  0  0  0  0  0  0  0  0  0  0  0
    5.1141    0.7981   -0.7088 H   0  0  0  0  0  0  0  0  0  0  0  0
    5.5172    0.9128    1.0534 H   0  0  0  0  0  0  0  0  0  0  0  0
    5.6475   -0.6628    0.2197 H   0  0  0  0  0  0  0  0  0  0  0  0
   -3.4551    3.3995   -0.4907 H   0  0  0  0  0  0  0  0  0  0  0  0
   -3.0147   -1.9252   -3.3077 H   0  0  0  0  0  0  0  0  0  0  0  0
   -2.5235    2.4044    3.5701 H   0  0  0  0  0  0  0  0  0  0  0  0
   -1.9446   -4.5930   -0.1318 H   0  0  0  0  0  0  0  0  0  0  0  0
   -3.6925    3.8344    1.9211 H   0  0  0  0  0  0  0  0  0  0  0  0
   -3.0296   -4.1800   -2.3188 H   0  0  0  0  0  0  0  0  0  0  0  0
  2  1  1  0
  3  1  1  0
  4  1  2  3
  5  9  1  0
  6  8  1  0
  7 13  1  0
  8  3  2  0
  9  2  2  0
 10  4  1  0
 11  4  1  0
 12 10  1  0
 13 11  1  0
 14  2  1  0
 15  3  1  0
 16  7  1  0
 17  8  1  0
 18  9  1  0
 19 15  2  0
 20 14  2  0
 21 19  1  0
 22 20  1  0
  7 12  1  0
  6  5  2  0
 21 17  2  0
 22 18  2  0
  5 23  1  0
  6 24  1  0
 10 25  1  0
 10 26  1  0
 11 27  1  0
 11 28  1  0
 12 29  1  0
 12 30  1  0
 13 31  1  0
 13 32  1  0
 14 33  1  0
 15 34  1  0
 16 35  1  0
 16 36  1  0
 16 37  1  0
 17 38  1  0
 18 39  1  0
 19 40  1  0
 20 41  1  0
 21 42  1  0
 22 43  1  0
M  END
$$$$
