
     RDKit          3D

 43 46  0  0  0  0  0  0  0  0999 V2000
   -0.4194   -0.0688   -0.5032 C   0  0  0  0  0  0  0  0  0  0  0  0
   -0.8946   -1.4442   -0.7332 C   0  0  0  0  0  0  0  0  0  0  0  0
   -1.4665    0.9641   -0.5861 C   0  0  0  0  0  0  0  0  0  0  0  0
    0.8457    0.2056   -0.0794 C   0  0  0  0  0  0  0  0  0  0  0  0
   -2.3519   -1.3326    1.3473 C   0  0  0  0  0  0  0  0  0  0  0  0
   -2.6618   -0.0274    1.4270 C   0  0  0  0  0  0  0  0  0  0  0  0
    3.2097    0.6745    1.4347 N   0  0  0  0  0  0  0  0  0  0  0  0
   -2.5401    0.9668    0.3310 C   0  0  0  0  0  0  0  0  0  0  0  0
   -1.8278   -2.0332    0.1478 C   0  0  0  0  0  0  0  0  0  0  0  0
    1.2057    1.6227    0.3454 C   0  0  0  0  0  0  0  0  0  0  0  0
    1.8138   -0.9384    0.1889 C   0  0  0  0  0  0  0  0  0  0  0  0
    2.6841    1.8257    0.6852 C   0  0  0  0  0  0  0  0  0  0  0  0
    3.2352   -0.4952    0.5434 C   0  0  0  0  0  0  0  0  0  0  0  0
   -0.4511   -2.1557   -1.8598 C   0  0  0  0  0  0  0  0  0  0  0  0
   -1.4197    1.9235   -1.6106 C   0  0  0  0  0  0  0  0  0  0  0  0
    4.5706    0.9685    1.9108 C   0  0  0  0  0  0  0  0  0  0  0  0
   -3.5026    1.9873    0.2501 C   0  0  0  0  0  0  0  0  0  0  0  0
   -2.2330   -3.3598   -0.0766 C   0  0  0  0  0  0  0  0  0  0  0  0
   -2.3979    2.9158   -1.6916 C   0  0  0  0  0  0  0  0  0  0  0  0
   -0.8829   -3.4643   -2.0815 C   0  0  0  0  0  0  0  0  0  0  0  0
   -3.4331    2.9528   -0.7572 C   0  0  0  0  0  0  0  0  0  0  0  0
   -1.7659   -4.0686   -1.1862 C   0  0  0  0  0  0  0  0  0  0  0  0
   -2.5999   -1.9474    2.2049 H   0  0  0  0  0  0  0  0  0  0  0  0
   -3.1354    0.3078    2.3427 H   0  0  0  0  0  0  0  0  0  0  0  0
    0.5951    1.8847    1.2372 H   0  0  0  0  0  0  0  0  0  0  0  0
    0.9565    2.3402   -0.4633 H   0  0  0  0  0  0  0  0  0  0  0  0
    1.4099   -1.5470    1.0275 H   0  0  0  0  0  0  0  0  0  0  0  0
    1.8904   -1.5929   -0.7036 H   0  0  0  0  0  0  0  0  0  0  0  0
    3.2642    1.9926   -0.2526 H   0  0  0  0  0  0  0  0  0  0  0  0
    2.7690    2.7532    1.2950 H   0  0  0  0  0  0  0  0  0  0  0  0
    3.8027   -0.2753   -0.3911 H   0  0  0  0  0  0  0  0  0  0  0  0
    3.7433   -1.3498    1.0443 H   0  0  0  0  0  0  0  0  0  0  0  0
    0.2341   -1.6969   -2.5624 H   0  0  0  0  0  0  0  0  0  0  0  0
   -0.6211    1.9047   -2.3423 H   0  0  0  0  0  0  0  0  0  0  0  0
    4.9673    0.1074    2.4906 H   0  0  0  0  0  0  0  0  0  0  0  0
    4.5553    1.8428    2.5967 H   0  0  0  0  0  0  0  0  0  0  0  0
    5.2599    1.1840    1.0634 H   0  0  0  0  0  0  0  0  0  0  0  0
   -4.3196    2.0276    0.9605 H   0  0  0  0  0  0  0  0  0  0  0  0
   -2.9256   -3.8434    0.6018 H   0  0  0  0  0  0  0  0  0  0  0  0
   -2.3513    3.6586   -2.4775 H   0  0  0  0  0  0  0  0  0  0  0  0
   -0.5301   -4.0114   -2.9461 H   0  0  0  0  0  0  0  0  0  0  0  0
   -4.1869    3.7272   -0.8167 H   0  0  0  0  0  0  0  0  0  0  0  0
   -2.0943   -5.0860   -1.3552 H   0  0  0  0  0  0  0  0  0  0  0  0
  2  1  1  0
  3  1  1  0
  4  1  2  3
  5  9  1  0
  6  8  1  0
  7 13  1  0
  8  3  2  0
  9  2  2  0
 10  4  1  0
 11  4  1  0
 12 10  1  0
 13 11  1  0
 14  2  1  0
 15  3  1  0
 16  7  1  0
 17  8  1  0
 18  9  1  0
 19 15  2  0
 20 14  2  0
 21 19  1  0
 22 20  1  0
  7 12  1  0
  6  5  2  0
 21 17  2  0
 22 18  2  0
  5 23  1  0
  6 24  1  0
 10 25  1  0
 10 26  1  0
 11 27  1  0
 11 28  1  0
 12 29  1  0
 12 30  1  0
 13 31  1  0
 13 32  1  0
 14 33  1  0
 15 34  1  0
 16 35  1  0
 16 36  1  0
 16 37  1  0
 17 38  1  0
 18 39  1  0
 19 40  1  0
 20 41  1  0
 21 42  1  0
 22 43  1  0
M  END
$$$$
