
     RDKit          3D

 43 46  0  0  0  0  0  0  0  0999 V2000
   -0.5789   -0.0014    0.1338 C   0  0  0  0  0  0  0  0  0  0  0  0
   -1.3476    1.2472   -0.0171 C   0  0  0  0  0  0  0  0  0  0  0  0
   -1.3625   -1.2347   -0.0607 C   0  0  0  0  0  0  0  0  0  0  0  0
    0.7618   -0.0137    0.3780 C   0  0  0  0  0  0  0  0  0  0  0  0
   -1.8197    0.7232   -2.4599 C   0  0  0  0  0  0  0  0  0  0  0  0
   -1.8277   -0.6195   -2.4835 C   0  0  0  0  0  0  0  0  0  0  0  0
    3.6243   -0.0357    0.6587 N   0  0  0  0  0  0  0  0  0  0  0  0
   -1.9687   -1.5113   -1.3058 C   0  0  0  0  0  0  0  0  0  0  0  0
   -1.9502    1.5746   -1.2515 C   0  0  0  0  0  0  0  0  0  0  0  0
    1.5295    1.2718    0.6333 C   0  0  0  0  0  0  0  0  0  0  0  0
    1.5140   -1.3165    0.5880 C   0  0  0  0  0  0  0  0  0  0  0  0
    2.9751    1.1807    0.1393 C   0  0  0  0  0  0  0  0  0  0  0  0
    2.9607   -1.2254    0.0972 C   0  0  0  0  0  0  0  0  0  0  0  0
   -1.5119    2.0999    1.0880 C   0  0  0  0  0  0  0  0  0  0  0  0
   -1.5372   -2.1237    1.0137 C   0  0  0  0  0  0  0  0  0  0  0  0
    5.0484   -0.0378    0.2894 C   0  0  0  0  0  0  0  0  0  0  0  0
   -2.6769   -2.7143   -1.4670 C   0  0  0  0  0  0  0  0  0  0  0  0
   -2.6439    2.7910   -1.3702 C   0  0  0  0  0  0  0  0  0  0  0  0
   -2.2642   -3.3025    0.8427 C   0  0  0  0  0  0  0  0  0  0  0  0
   -2.2247    3.2927    0.9586 C   0  0  0  0  0  0  0  0  0  0  0  0
   -2.8270   -3.6010   -0.3981 C   0  0  0  0  0  0  0  0  0  0  0  0
   -2.7837    3.6413   -0.2707 C   0  0  0  0  0  0  0  0  0  0  0  0
   -1.8167    1.2292   -3.4186 H   0  0  0  0  0  0  0  0  0  0  0  0
   -1.8306   -1.0914   -3.4594 H   0  0  0  0  0  0  0  0  0  0  0  0
    1.0663    2.1385    0.1163 H   0  0  0  0  0  0  0  0  0  0  0  0
    1.5271    1.4752    1.7258 H   0  0  0  0  0  0  0  0  0  0  0  0
    1.5089   -1.5579    1.6727 H   0  0  0  0  0  0  0  0  0  0  0  0
    1.0405   -2.1589    0.0411 H   0  0  0  0  0  0  0  0  0  0  0  0
    2.9901    1.1974   -0.9755 H   0  0  0  0  0  0  0  0  0  0  0  0
    3.5156    2.0845    0.4992 H   0  0  0  0  0  0  0  0  0  0  0  0
    2.9758   -1.2034   -1.0175 H   0  0  0  0  0  0  0  0  0  0  0  0
    3.4902   -2.1477    0.4253 H   0  0  0  0  0  0  0  0  0  0  0  0
   -1.0815    1.8416    2.0478 H   0  0  0  0  0  0  0  0  0  0  0  0
   -1.1039   -1.9045    1.9820 H   0  0  0  0  0  0  0  0  0  0  0  0
    5.1810   -0.0192   -0.8158 H   0  0  0  0  0  0  0  0  0  0  0  0
    5.5592    0.8452    0.7304 H   0  0  0  0  0  0  0  0  0  0  0  0
    5.5484   -0.9418    0.6990 H   0  0  0  0  0  0  0  0  0  0  0  0
   -3.1267   -2.9618   -2.4211 H   0  0  0  0  0  0  0  0  0  0  0  0
   -3.0905    3.0772   -2.3149 H   0  0  0  0  0  0  0  0  0  0  0  0
   -2.3879   -3.9871    1.6718 H   0  0  0  0  0  0  0  0  0  0  0  0
   -2.3405    3.9491    1.8114 H   0  0  0  0  0  0  0  0  0  0  0  0
   -3.3842   -4.5193   -0.5316 H   0  0  0  0  0  0  0  0  0  0  0  0
   -3.3299    4.5703   -0.3718 H   0  0  0  0  0  0  0  0  0  0  0  0
  2  1  1  0
  3  1  1  0
  4  1  2  3
  5  9  1  0
  6  8  1  0
  7 13  1  0
  8  3  2  0
  9  2  2  0
 10  4  1  0
 11  4  1  0
 12 10  1  0
 13 11  1  0
 14  2  1  0
 15  3  1  0
 16  7  1  0
 17  8  1  0
 18  9  1  0
 19 15  2  0
 20 14  2  0
 21 19  1  0
 22 20  1  0
  7 12  1  0
  6  5  2  0
 21 17  2  0
 22 18  2  0
  5 23  1  0
  6 24  1  0
 10 25  1  0
 10 26  1  0
 11 27  1  0
 11 28  1  0
 12 29  1  0
 12 30  1  0
 13 31  1  0
 13 32  1  0
 14 33  1  0
 15 34  1  0
 16 35  1  0
 16 36  1  0
 16 37  1  0
 17 38  1  0
 18 39  1  0
 19 40  1  0
 20 41  1  0
 21 42  1  0
 22 43  1  0
M  END
$$$$
