
     RDKit          3D

 43 46  0  0  0  0  0  0  0  0999 V2000
   -0.4456    0.0297    0.6204 C   0  0  0  0  0  0  0  0  0  0  0  0
   -1.0162    1.3687    0.8532 C   0  0  0  0  0  0  0  0  0  0  0  0
   -1.4311   -1.0665    0.6089 C   0  0  0  0  0  0  0  0  0  0  0  0
    0.8803   -0.1720    0.3787 C   0  0  0  0  0  0  0  0  0  0  0  0
   -2.3527    1.2322   -1.3054 C   0  0  0  0  0  0  0  0  0  0  0  0
   -2.5772   -0.0852   -1.4376 C   0  0  0  0  0  0  0  0  0  0  0  0
    3.6315   -0.5664   -0.3619 N   0  0  0  0  0  0  0  0  0  0  0  0
   -2.4537   -1.1025   -0.3643 C   0  0  0  0  0  0  0  0  0  0  0  0
   -1.9378    1.9253   -0.0606 C   0  0  0  0  0  0  0  0  0  0  0  0
    1.8794    0.9694    0.4568 C   0  0  0  0  0  0  0  0  0  0  0  0
    1.4468   -1.5702    0.2021 C   0  0  0  0  0  0  0  0  0  0  0  0
    3.0439    0.7758   -0.5172 C   0  0  0  0  0  0  0  0  0  0  0  0
    2.6417   -1.5850   -0.7540 C   0  0  0  0  0  0  0  0  0  0  0  0
   -0.6670    2.0807    2.0135 C   0  0  0  0  0  0  0  0  0  0  0  0
   -1.3730   -2.0634    1.5979 C   0  0  0  0  0  0  0  0  0  0  0  0
    4.8316   -0.6863   -1.2045 C   0  0  0  0  0  0  0  0  0  0  0  0
   -3.3532   -2.1822   -0.3684 C   0  0  0  0  0  0  0  0  0  0  0  0
   -2.4330    3.2195    0.1734 C   0  0  0  0  0  0  0  0  0  0  0  0
   -2.2896   -3.1157    1.5933 C   0  0  0  0  0  0  0  0  0  0  0  0
   -1.1871    3.3553    2.2423 C   0  0  0  0  0  0  0  0  0  0  0  0
   -3.2738   -3.1790    0.6070 C   0  0  0  0  0  0  0  0  0  0  0  0
   -2.0632    3.9270    1.3197 C   0  0  0  0  0  0  0  0  0  0  0  0
   -2.5915    1.8569   -2.1585 H   0  0  0  0  0  0  0  0  0  0  0  0
   -2.9794   -0.4200   -2.3869 H   0  0  0  0  0  0  0  0  0  0  0  0
    1.4111    1.9453    0.2094 H   0  0  0  0  0  0  0  0  0  0  0  0
    2.2739    1.0248    1.4942 H   0  0  0  0  0  0  0  0  0  0  0  0
    0.6927   -2.2713   -0.2136 H   0  0  0  0  0  0  0  0  0  0  0  0
    1.7669   -1.9511    1.1957 H   0  0  0  0  0  0  0  0  0  0  0  0
    2.6880    0.9385   -1.5612 H   0  0  0  0  0  0  0  0  0  0  0  0
    3.8074    1.5543   -0.2941 H   0  0  0  0  0  0  0  0  0  0  0  0
    2.2867   -1.4171   -1.7975 H   0  0  0  0  0  0  0  0  0  0  0  0
    3.0999   -2.5983   -0.7106 H   0  0  0  0  0  0  0  0  0  0  0  0
    0.0135    1.6488    2.7371 H   0  0  0  0  0  0  0  0  0  0  0  0
   -0.6127   -2.0268    2.3685 H   0  0  0  0  0  0  0  0  0  0  0  0
    5.2925   -1.6890   -1.0731 H   0  0  0  0  0  0  0  0  0  0  0  0
    4.5883   -0.5370   -2.2805 H   0  0  0  0  0  0  0  0  0  0  0  0
    5.5912    0.0644   -0.8973 H   0  0  0  0  0  0  0  0  0  0  0  0
   -4.1287   -2.2465   -1.1223 H   0  0  0  0  0  0  0  0  0  0  0  0
   -3.1192    3.6788   -0.5280 H   0  0  0  0  0  0  0  0  0  0  0  0
   -2.2343   -3.8849    2.3527 H   0  0  0  0  0  0  0  0  0  0  0  0
   -0.9077    3.9018    3.1337 H   0  0  0  0  0  0  0  0  0  0  0  0
   -3.9794   -3.9997    0.6000 H   0  0  0  0  0  0  0  0  0  0  0  0
   -2.4600    4.9187    1.4945 H   0  0  0  0  0  0  0  0  0  0  0  0
  2  1  1  0
  3  1  1  0
  4  1  2  3
  5  9  1  0
  6  8  1  0
  7 13  1  0
  8  3  2  0
  9  2  2  0
 10  4  1  0
 11  4  1  0
 12 10  1  0
 13 11  1  0
 14  2  1  0
 15  3  1  0
 16  7  1  0
 17  8  1  0
 18  9  1  0
 19 15  2  0
 20 14  2  0
 21 19  1  0
 22 20  1  0
  7 12  1  0
  6  5  2  0
 21 17  2  0
 22 18  2  0
  5 23  1  0
  6 24  1  0
 10 25  1  0
 10 26  1  0
 11 27  1  0
 11 28  1  0
 12 29  1  0
 12 30  1  0
 13 31  1  0
 13 32  1  0
 14 33  1  0
 15 34  1  0
 16 35  1  0
 16 36  1  0
 16 37  1  0
 17 38  1  0
 18 39  1  0
 19 40  1  0
 20 41  1  0
 21 42  1  0
 22 43  1  0
M  END
$$$$
