
     RDKit          3D

 45 48  0  0  0  0  0  0  0  0999 V2000
   -1.7609    3.0531    0.7651 O   0  0  0  0  0  0  0  0  0  0  0  0
    1.4107    0.6897   -3.2467 O   0  0  0  0  0  0  0  0  0  0  0  0
   -4.8773    1.5986    2.8880 O   0  0  0  0  0  0  0  0  0  0  0  0
    4.8592   -1.4053   -3.0162 O   0  0  0  0  0  0  0  0  0  0  0  0
   -2.9337    2.7073    3.3820 O   0  0  0  0  0  0  0  0  0  0  0  0
    2.8382   -1.6864   -4.0588 O   0  0  0  0  0  0  0  0  0  0  0  0
   -1.3248    0.9061   -0.2766 C   0  0  0  0  0  0  0  0  0  0  0  0
    1.1681    0.7695   -0.8344 C   0  0  0  0  0  0  0  0  0  0  0  0
   -1.7561   -0.4268   -0.5360 C   0  0  0  0  0  0  0  0  0  0  0  0
    1.7441    0.5551    0.4509 C   0  0  0  0  0  0  0  0  0  0  0  0
   -2.0366    1.6842    0.6718 C   0  0  0  0  0  0  0  0  0  0  0  0
    1.8520    0.2894   -1.9804 C   0  0  0  0  0  0  0  0  0  0  0  0
   -0.1437    1.5360   -1.0184 C   0  0  0  0  0  0  0  0  0  0  0  0
   -2.7756   -0.9996    0.2674 C   0  0  0  0  0  0  0  0  0  0  0  0
    2.8941   -0.2670    0.5724 C   0  0  0  0  0  0  0  0  0  0  0  0
   -3.0264    1.0895    1.4871 C   0  0  0  0  0  0  0  0  0  0  0  0
    2.9765   -0.5557   -1.8410 C   0  0  0  0  0  0  0  0  0  0  0  0
   -3.3820   -0.2463    1.2747 C   0  0  0  0  0  0  0  0  0  0  0  0
    3.4822   -0.8240   -0.5650 C   0  0  0  0  0  0  0  0  0  0  0  0
   -1.2277   -1.2015   -1.5921 C   0  0  0  0  0  0  0  0  0  0  0  0
    1.2317    1.1587    1.6205 C   0  0  0  0  0  0  0  0  0  0  0  0
   -3.6693    1.8191    2.6021 C   0  0  0  0  0  0  0  0  0  0  0  0
    3.6129   -1.2156   -3.0023 C   0  0  0  0  0  0  0  0  0  0  0  0
   -3.1845   -2.3266    0.0529 C   0  0  0  0  0  0  0  0  0  0  0  0
    3.4511   -0.5232    1.8367 C   0  0  0  0  0  0  0  0  0  0  0  0
   -1.6481   -2.5171   -1.7978 C   0  0  0  0  0  0  0  0  0  0  0  0
    1.7993    0.9002    2.8698 C   0  0  0  0  0  0  0  0  0  0  0  0
   -2.6156   -3.0822   -0.9708 C   0  0  0  0  0  0  0  0  0  0  0  0
    2.8990    0.0529    2.9794 C   0  0  0  0  0  0  0  0  0  0  0  0
   -2.3410    3.7071    1.2727 H   0  0  0  0  0  0  0  0  0  0  0  0
    1.9429    0.5490   -4.0947 H   0  0  0  0  0  0  0  0  0  0  0  0
   -3.3624    3.1955    4.1591 H   0  0  0  0  0  0  0  0  0  0  0  0
    3.2652   -2.1565   -4.8480 H   0  0  0  0  0  0  0  0  0  0  0  0
   -0.4379    1.6184   -2.0845 H   0  0  0  0  0  0  0  0  0  0  0  0
    0.0450    2.5815   -0.7002 H   0  0  0  0  0  0  0  0  0  0  0  0
   -4.1400   -0.7044    1.9013 H   0  0  0  0  0  0  0  0  0  0  0  0
    4.3438   -1.4743   -0.4567 H   0  0  0  0  0  0  0  0  0  0  0  0
   -0.5183   -0.7971   -2.2918 H   0  0  0  0  0  0  0  0  0  0  0  0
    0.4187    1.8616    1.5859 H   0  0  0  0  0  0  0  0  0  0  0  0
   -3.9520   -2.7767    0.6717 H   0  0  0  0  0  0  0  0  0  0  0  0
    4.3204   -1.1620    1.9398 H   0  0  0  0  0  0  0  0  0  0  0  0
   -1.2284   -3.0971   -2.6098 H   0  0  0  0  0  0  0  0  0  0  0  0
    1.3900    1.3686    3.7559 H   0  0  0  0  0  0  0  0  0  0  0  0
   -2.9387   -4.1021   -1.1348 H   0  0  0  0  0  0  0  0  0  0  0  0
    3.3358   -0.1437    3.9500 H   0  0  0  0  0  0  0  0  0  0  0  0
  1 11  1  0
  2 12  1  0
  3 22  2  0
  4 23  2  0
  5 22  1  0
  6 23  1  0
  7  9  1  0
  7 11  2  0
  7 13  1  0
  8 10  1  0
  8 12  2  0
  8 13  1  0
  9 14  2  0
  9 20  1  0
 10 15  2  0
 10 21  1  0
 11 16  1  0
 12 17  1  0
 14 18  1  0
 14 24  1  0
 15 19  1  0
 15 25  1  0
 16 18  2  0
 16 22  1  0
 17 19  2  0
 17 23  1  0
 20 26  2  0
 21 27  2  0
 24 28  2  0
 25 29  2  0
 26 28  1  0
 27 29  1  0
  1 30  1  0
  2 31  1  0
  5 32  1  0
  6 33  1  0
 13 34  1  0
 13 35  1  0
 18 36  1  0
 19 37  1  0
 20 38  1  0
 21 39  1  0
 24 40  1  0
 25 41  1  0
 26 42  1  0
 27 43  1  0
 28 44  1  0
 29 45  1  0
M  END
$$$$
