
     RDKit          3D

 45 48  0  0  0  0  0  0  0  0999 V2000
    0.4589    2.1170   -0.9671 O   0  0  0  0  0  0  0  0  0  0  0  0
   -0.3415   -2.2026    0.6527 O   0  0  0  0  0  0  0  0  0  0  0  0
    3.9269    3.5089    0.5551 O   0  0  0  0  0  0  0  0  0  0  0  0
   -2.3379   -3.3354    2.3740 O   0  0  0  0  0  0  0  0  0  0  0  0
    1.7120    3.6812    1.1164 O   0  0  0  0  0  0  0  0  0  0  0  0
   -3.0975   -1.6677    3.7492 O   0  0  0  0  0  0  0  0  0  0  0  0
    1.2251   -0.1787   -0.9238 C   0  0  0  0  0  0  0  0  0  0  0  0
   -1.2832   -0.3764   -0.6268 C   0  0  0  0  0  0  0  0  0  0  0  0
    2.2694   -1.1227   -0.6657 C   0  0  0  0  0  0  0  0  0  0  0  0
   -2.2935    0.6230   -0.7935 C   0  0  0  0  0  0  0  0  0  0  0  0
    1.4276    1.1833   -0.5874 C   0  0  0  0  0  0  0  0  0  0  0  0
   -1.3561   -1.2552    0.4839 C   0  0  0  0  0  0  0  0  0  0  0  0
   -0.1034   -0.5501   -1.5838 C   0  0  0  0  0  0  0  0  0  0  0  0
    3.4666   -0.6746   -0.0429 C   0  0  0  0  0  0  0  0  0  0  0  0
   -3.3186    0.7379    0.1848 C   0  0  0  0  0  0  0  0  0  0  0  0
    2.6011    1.5942    0.0814 C   0  0  0  0  0  0  0  0  0  0  0  0
   -2.4150   -1.1546    1.4146 C   0  0  0  0  0  0  0  0  0  0  0  0
    3.6136    0.6640    0.3257 C   0  0  0  0  0  0  0  0  0  0  0  0
   -3.3614   -0.1388    1.2705 C   0  0  0  0  0  0  0  0  0  0  0  0
    2.1798   -2.4966   -1.0069 C   0  0  0  0  0  0  0  0  0  0  0  0
   -2.3297    1.5186   -1.8927 C   0  0  0  0  0  0  0  0  0  0  0  0
    2.7837    2.9776    0.5737 C   0  0  0  0  0  0  0  0  0  0  0  0
   -2.5892   -2.1104    2.5309 C   0  0  0  0  0  0  0  0  0  0  0  0
    4.5123   -1.5748    0.2227 C   0  0  0  0  0  0  0  0  0  0  0  0
   -4.3129    1.7232    0.0632 C   0  0  0  0  0  0  0  0  0  0  0  0
    3.2306   -3.3757   -0.7354 C   0  0  0  0  0  0  0  0  0  0  0  0
   -3.3273    2.4905   -1.9968 C   0  0  0  0  0  0  0  0  0  0  0  0
    4.3924   -2.9174   -0.1236 C   0  0  0  0  0  0  0  0  0  0  0  0
   -4.3133    2.5951   -1.0216 C   0  0  0  0  0  0  0  0  0  0  0  0
    0.6025    3.1172   -0.9414 H   0  0  0  0  0  0  0  0  0  0  0  0
   -0.2006   -2.7329    1.5014 H   0  0  0  0  0  0  0  0  0  0  0  0
    1.8340    4.6216    1.4728 H   0  0  0  0  0  0  0  0  0  0  0  0
   -3.2446   -2.3125    4.5165 H   0  0  0  0  0  0  0  0  0  0  0  0
   -0.1463   -1.5805   -1.9675 H   0  0  0  0  0  0  0  0  0  0  0  0
   -0.1833    0.0336   -2.5135 H   0  0  0  0  0  0  0  0  0  0  0  0
    4.5195    0.9824    0.8309 H   0  0  0  0  0  0  0  0  0  0  0  0
   -4.1672   -0.0548    1.9922 H   0  0  0  0  0  0  0  0  0  0  0  0
    1.3160   -2.9335   -1.4747 H   0  0  0  0  0  0  0  0  0  0  0  0
   -1.6060    1.5059   -2.6878 H   0  0  0  0  0  0  0  0  0  0  0  0
    5.4254   -1.2385    0.7001 H   0  0  0  0  0  0  0  0  0  0  0  0
   -5.0953    1.8161    0.8075 H   0  0  0  0  0  0  0  0  0  0  0  0
    3.1412   -4.4215   -1.0010 H   0  0  0  0  0  0  0  0  0  0  0  0
   -3.3342    3.1681   -2.8412 H   0  0  0  0  0  0  0  0  0  0  0  0
    5.2022   -3.6049    0.0842 H   0  0  0  0  0  0  0  0  0  0  0  0
   -5.0831    3.3510   -1.1090 H   0  0  0  0  0  0  0  0  0  0  0  0
  1 11  1  0
  2 12  1  0
  3 22  2  0
  4 23  2  0
  5 22  1  0
  6 23  1  0
  7  9  1  0
  7 11  2  0
  7 13  1  0
  8 10  1  0
  8 12  2  0
  8 13  1  0
  9 14  2  0
  9 20  1  0
 10 15  2  0
 10 21  1  0
 11 16  1  0
 12 17  1  0
 14 18  1  0
 14 24  1  0
 15 19  1  0
 15 25  1  0
 16 18  2  0
 16 22  1  0
 17 19  2  0
 17 23  1  0
 20 26  2  0
 21 27  2  0
 24 28  2  0
 25 29  2  0
 26 28  1  0
 27 29  1  0
  1 30  1  0
  2 31  1  0
  5 32  1  0
  6 33  1  0
 13 34  1  0
 13 35  1  0
 18 36  1  0
 19 37  1  0
 20 38  1  0
 21 39  1  0
 24 40  1  0
 25 41  1  0
 26 42  1  0
 27 43  1  0
 28 44  1  0
 29 45  1  0
M  END
$$$$
