
     RDKit          3D

 45 48  0  0  0  0  0  0  0  0999 V2000
   -1.2714    1.8707   -2.6485 O   0  0  0  0  0  0  0  0  0  0  0  0
    0.7501    2.1616   -0.3727 O   0  0  0  0  0  0  0  0  0  0  0  0
   -2.9497    4.0163   -1.7487 O   0  0  0  0  0  0  0  0  0  0  0  0
    1.5346    3.1306    2.2046 O   0  0  0  0  0  0  0  0  0  0  0  0
   -5.0425    3.1649   -1.3689 O   0  0  0  0  0  0  0  0  0  0  0  0
    3.7963    2.8326    2.4164 O   0  0  0  0  0  0  0  0  0  0  0  0
   -1.1990    0.1317   -0.9613 C   0  0  0  0  0  0  0  0  0  0  0  0
    1.2890   -0.1945   -0.5454 C   0  0  0  0  0  0  0  0  0  0  0  0
   -1.8271   -0.5639    0.1104 C   0  0  0  0  0  0  0  0  0  0  0  0
    2.2022   -1.2569   -0.2630 C   0  0  0  0  0  0  0  0  0  0  0  0
   -1.8333    1.2721   -1.5152 C   0  0  0  0  0  0  0  0  0  0  0  0
    1.4842    1.0620    0.0832 C   0  0  0  0  0  0  0  0  0  0  0  0
    0.1339   -0.3382   -1.5396 C   0  0  0  0  0  0  0  0  0  0  0  0
   -3.0454   -0.0710    0.6431 C   0  0  0  0  0  0  0  0  0  0  0  0
    3.1764   -1.0794    0.7562 C   0  0  0  0  0  0  0  0  0  0  0  0
   -3.0263    1.7744   -0.9431 C   0  0  0  0  0  0  0  0  0  0  0  0
    2.4317    1.2059    1.1220 C   0  0  0  0  0  0  0  0  0  0  0  0
   -3.6243    1.0864    0.1176 C   0  0  0  0  0  0  0  0  0  0  0  0
    3.2654    0.1327    1.4436 C   0  0  0  0  0  0  0  0  0  0  0  0
   -1.2868   -1.7487    0.6613 C   0  0  0  0  0  0  0  0  0  0  0  0
    2.2011   -2.4865   -0.9683 C   0  0  0  0  0  0  0  0  0  0  0  0
   -3.6565    3.0347   -1.3948 C   0  0  0  0  0  0  0  0  0  0  0  0
    2.5540    2.4463    1.9200 C   0  0  0  0  0  0  0  0  0  0  0  0
   -3.6732   -0.7391    1.7078 C   0  0  0  0  0  0  0  0  0  0  0  0
    4.0611   -2.1205    1.0839 C   0  0  0  0  0  0  0  0  0  0  0  0
   -1.9236   -2.4019    1.7185 C   0  0  0  0  0  0  0  0  0  0  0  0
    3.0927   -3.5079   -0.6326 C   0  0  0  0  0  0  0  0  0  0  0  0
   -3.1112   -1.8972    2.2427 C   0  0  0  0  0  0  0  0  0  0  0  0
    4.0129   -3.3297    0.3956 C   0  0  0  0  0  0  0  0  0  0  0  0
   -1.7462    2.5619   -3.2127 H   0  0  0  0  0  0  0  0  0  0  0  0
    0.9549    3.1185   -0.1191 H   0  0  0  0  0  0  0  0  0  0  0  0
   -5.4892    4.0285   -1.6531 H   0  0  0  0  0  0  0  0  0  0  0  0
    3.8936    3.6669    2.9826 H   0  0  0  0  0  0  0  0  0  0  0  0
   -0.0416   -1.3708   -1.8810 H   0  0  0  0  0  0  0  0  0  0  0  0
    0.4166    0.2173   -2.4568 H   0  0  0  0  0  0  0  0  0  0  0  0
   -4.5413    1.4684    0.5535 H   0  0  0  0  0  0  0  0  0  0  0  0
    3.9940    0.2421    2.2400 H   0  0  0  0  0  0  0  0  0  0  0  0
   -0.3813   -2.1933    0.2807 H   0  0  0  0  0  0  0  0  0  0  0  0
    1.5496   -2.6837   -1.8018 H   0  0  0  0  0  0  0  0  0  0  0  0
   -4.6009   -0.3659    2.1257 H   0  0  0  0  0  0  0  0  0  0  0  0
    4.7974   -1.9954    1.8694 H   0  0  0  0  0  0  0  0  0  0  0  0
   -1.4952   -3.3069    2.1300 H   0  0  0  0  0  0  0  0  0  0  0  0
    3.0745   -4.4415   -1.1805 H   0  0  0  0  0  0  0  0  0  0  0  0
   -3.6007   -2.4078    3.0620 H   0  0  0  0  0  0  0  0  0  0  0  0
    4.7009   -4.1257    0.6501 H   0  0  0  0  0  0  0  0  0  0  0  0
  1 11  1  0
  2 12  1  0
  3 22  2  0
  4 23  2  0
  5 22  1  0
  6 23  1  0
  7  9  1  0
  7 11  2  0
  7 13  1  0
  8 10  1  0
  8 12  2  0
  8 13  1  0
  9 14  2  0
  9 20  1  0
 10 15  2  0
 10 21  1  0
 11 16  1  0
 12 17  1  0
 14 18  1  0
 14 24  1  0
 15 19  1  0
 15 25  1  0
 16 18  2  0
 16 22  1  0
 17 19  2  0
 17 23  1  0
 20 26  2  0
 21 27  2  0
 24 28  2  0
 25 29  2  0
 26 28  1  0
 27 29  1  0
  1 30  1  0
  2 31  1  0
  5 32  1  0
  6 33  1  0
 13 34  1  0
 13 35  1  0
 18 36  1  0
 19 37  1  0
 20 38  1  0
 21 39  1  0
 24 40  1  0
 25 41  1  0
 26 42  1  0
 27 43  1  0
 28 44  1  0
 29 45  1  0
M  END
$$$$
