
     RDKit          3D

 45 48  0  0  0  0  0  0  0  0999 V2000
    0.8288   -2.1538    0.0161 O   0  0  0  0  0  0  0  0  0  0  0  0
   -0.8386    2.1287   -0.4209 O   0  0  0  0  0  0  0  0  0  0  0  0
    3.2672   -3.1969    1.1096 O   0  0  0  0  0  0  0  0  0  0  0  0
   -3.1775    3.4278    0.6143 O   0  0  0  0  0  0  0  0  0  0  0  0
    4.0310   -1.6931    2.6603 O   0  0  0  0  0  0  0  0  0  0  0  0
   -3.7786    2.3421    2.5403 O   0  0  0  0  0  0  0  0  0  0  0  0
    1.2249    0.0117   -0.9905 C   0  0  0  0  0  0  0  0  0  0  0  0
   -1.3017   -0.2089   -0.8458 C   0  0  0  0  0  0  0  0  0  0  0  0
    2.0281    1.1905   -1.1081 C   0  0  0  0  0  0  0  0  0  0  0  0
   -2.0991   -1.3732   -0.6067 C   0  0  0  0  0  0  0  0  0  0  0  0
    1.6414   -1.0237   -0.1154 C   0  0  0  0  0  0  0  0  0  0  0  0
   -1.6472    1.0087   -0.2060 C   0  0  0  0  0  0  0  0  0  0  0  0
   -0.0779   -0.2003   -1.7639 C   0  0  0  0  0  0  0  0  0  0  0  0
    3.1992    1.3103   -0.3109 C   0  0  0  0  0  0  0  0  0  0  0  0
   -3.1906   -1.2880    0.3004 C   0  0  0  0  0  0  0  0  0  0  0  0
    2.8369   -0.9022    0.6286 C   0  0  0  0  0  0  0  0  0  0  0  0
   -2.7679    1.0798    0.6523 C   0  0  0  0  0  0  0  0  0  0  0  0
    3.5807    0.2758    0.5452 C   0  0  0  0  0  0  0  0  0  0  0  0
   -3.5031   -0.0762    0.9188 C   0  0  0  0  0  0  0  0  0  0  0  0
    1.7158    2.2625   -1.9831 C   0  0  0  0  0  0  0  0  0  0  0  0
   -1.8568   -2.6251   -1.2282 C   0  0  0  0  0  0  0  0  0  0  0  0
    3.3635   -1.9949    1.4762 C   0  0  0  0  0  0  0  0  0  0  0  0
   -3.2263    2.3478    1.2621 C   0  0  0  0  0  0  0  0  0  0  0  0
    3.9984    2.4636   -0.3864 C   0  0  0  0  0  0  0  0  0  0  0  0
   -3.9805   -2.4175    0.5738 C   0  0  0  0  0  0  0  0  0  0  0  0
    2.5236    3.4002   -2.0450 C   0  0  0  0  0  0  0  0  0  0  0  0
   -2.6543   -3.7361   -0.9446 C   0  0  0  0  0  0  0  0  0  0  0  0
    3.6589    3.5021   -1.2483 C   0  0  0  0  0  0  0  0  0  0  0  0
   -3.7102   -3.6342   -0.0454 C   0  0  0  0  0  0  0  0  0  0  0  0
    0.9359   -2.8437    0.7469 H   0  0  0  0  0  0  0  0  0  0  0  0
   -0.8856    2.9730    0.1325 H   0  0  0  0  0  0  0  0  0  0  0  0
    4.4177   -2.4274    3.2411 H   0  0  0  0  0  0  0  0  0  0  0  0
   -4.1184    3.1972    2.9639 H   0  0  0  0  0  0  0  0  0  0  0  0
   -0.2651    0.5486   -2.5481 H   0  0  0  0  0  0  0  0  0  0  0  0
    0.0446   -1.1156   -2.3625 H   0  0  0  0  0  0  0  0  0  0  0  0
    4.4926    0.3726    1.1252 H   0  0  0  0  0  0  0  0  0  0  0  0
   -4.3566   -0.0229    1.5866 H   0  0  0  0  0  0  0  0  0  0  0  0
    0.8557    2.2664   -2.6281 H   0  0  0  0  0  0  0  0  0  0  0  0
   -1.0597   -2.7910   -1.9303 H   0  0  0  0  0  0  0  0  0  0  0  0
    4.8913    2.5600    0.2204 H   0  0  0  0  0  0  0  0  0  0  0  0
   -4.8126   -2.3577    1.2657 H   0  0  0  0  0  0  0  0  0  0  0  0
    2.2649    4.2096   -2.7159 H   0  0  0  0  0  0  0  0  0  0  0  0
   -2.4494   -4.6841   -1.4258 H   0  0  0  0  0  0  0  0  0  0  0  0
    4.2799    4.3871   -1.3015 H   0  0  0  0  0  0  0  0  0  0  0  0
   -4.3237   -4.4997    0.1696 H   0  0  0  0  0  0  0  0  0  0  0  0
  1 11  1  0
  2 12  1  0
  3 22  2  0
  4 23  2  0
  5 22  1  0
  6 23  1  0
  7  9  1  0
  7 11  2  0
  7 13  1  0
  8 10  1  0
  8 12  2  0
  8 13  1  0
  9 14  2  0
  9 20  1  0
 10 15  2  0
 10 21  1  0
 11 16  1  0
 12 17  1  0
 14 18  1  0
 14 24  1  0
 15 19  1  0
 15 25  1  0
 16 18  2  0
 16 22  1  0
 17 19  2  0
 17 23  1  0
 20 26  2  0
 21 27  2  0
 24 28  2  0
 25 29  2  0
 26 28  1  0
 27 29  1  0
  1 30  1  0
  2 31  1  0
  5 32  1  0
  6 33  1  0
 13 34  1  0
 13 35  1  0
 18 36  1  0
 19 37  1  0
 20 38  1  0
 21 39  1  0
 24 40  1  0
 25 41  1  0
 26 42  1  0
 27 43  1  0
 28 44  1  0
 29 45  1  0
M  END
$$$$
