
     RDKit          3D

 39 41  0  0  0  0  0  0  0  0999 V2000
   -0.4982    0.6891   -2.5399 C   0  0  0  0  0  0  0  0  0  0  0  0
   -1.1781   -0.0061   -1.5331 N   0  0  0  0  0  0  0  0  0  0  0  0
   -2.0929    0.6117   -0.6063 C   0  0  0  0  0  0  0  0  0  0  0  0
    0.8300    0.3319   -2.8036 O   0  0  0  0  0  0  0  0  0  0  0  0
   -1.1274    1.8151   -3.6086 S   0  0  0  0  0  0  0  0  0  0  0  0
    1.7349   -0.0829   -1.7973 C   0  0  0  0  0  0  0  0  0  0  0  0
    2.6913    0.0762    0.4192 C   0  0  0  0  0  0  0  0  0  0  0  0
   -3.0040   -0.1525    0.1445 C   0  0  0  0  0  0  0  0  0  0  0  0
    1.7660    0.5161   -0.5390 C   0  0  0  0  0  0  0  0  0  0  0  0
    3.6004   -0.9579    0.0863 C   0  0  0  0  0  0  0  0  0  0  0  0
    3.5642   -1.5230   -1.2001 C   0  0  0  0  0  0  0  0  0  0  0  0
    2.6375   -1.0828   -2.1446 C   0  0  0  0  0  0  0  0  0  0  0  0
   -3.8829    0.4383    1.0701 C   0  0  0  0  0  0  0  0  0  0  0  0
   -2.0558    1.9918   -0.3574 C   0  0  0  0  0  0  0  0  0  0  0  0
   -1.0476   -1.4609   -1.5180 C   0  0  0  0  0  0  0  0  0  0  0  0
   -2.9142    2.5893    0.5712 C   0  0  0  0  0  0  0  0  0  0  0  0
    2.7351    0.6426    1.7030 C   0  0  0  0  0  0  0  0  0  0  0  0
   -3.8246    1.8159    1.2829 C   0  0  0  0  0  0  0  0  0  0  0  0
    4.5247   -1.3934    1.0491 C   0  0  0  0  0  0  0  0  0  0  0  0
   -4.8309   -0.4129    1.8633 C   0  0  0  0  0  0  0  0  0  0  0  0
    3.6602    0.1963    2.6478 C   0  0  0  0  0  0  0  0  0  0  0  0
    4.5534   -0.8200    2.3215 C   0  0  0  0  0  0  0  0  0  0  0  0
   -3.0665   -1.2294    0.0205 H   0  0  0  0  0  0  0  0  0  0  0  0
    1.0792    1.3223   -0.3003 H   0  0  0  0  0  0  0  0  0  0  0  0
    4.2637   -2.3093   -1.4752 H   0  0  0  0  0  0  0  0  0  0  0  0
    2.6199   -1.5179   -3.1395 H   0  0  0  0  0  0  0  0  0  0  0  0
   -1.3385    2.6402   -0.8512 H   0  0  0  0  0  0  0  0  0  0  0  0
   -2.0134   -1.9165   -1.7592 H   0  0  0  0  0  0  0  0  0  0  0  0
   -0.7007   -1.7907   -0.5340 H   0  0  0  0  0  0  0  0  0  0  0  0
   -0.3475   -1.8129   -2.2808 H   0  0  0  0  0  0  0  0  0  0  0  0
   -2.8619    3.6618    0.7421 H   0  0  0  0  0  0  0  0  0  0  0  0
    2.0450    1.4377    1.9777 H   0  0  0  0  0  0  0  0  0  0  0  0
   -4.4818    2.2932    2.0059 H   0  0  0  0  0  0  0  0  0  0  0  0
    5.2332   -2.1845    0.8136 H   0  0  0  0  0  0  0  0  0  0  0  0
   -4.3314   -0.7928    2.7597 H   0  0  0  0  0  0  0  0  0  0  0  0
   -5.7132    0.1604    2.1670 H   0  0  0  0  0  0  0  0  0  0  0  0
   -5.1849   -1.2604    1.2669 H   0  0  0  0  0  0  0  0  0  0  0  0
    3.6829    0.6437    3.6382 H   0  0  0  0  0  0  0  0  0  0  0  0
    5.2750   -1.1666    3.0567 H   0  0  0  0  0  0  0  0  0  0  0  0
  2  1  1  0
  3  2  1  0
  4  1  1  0
  5  1  2  0
  6  4  1  0
  7  9  2  0
  8  3  2  0
  9  6  1  0
 10 11  2  0
 11 12  1  0
 12  6  2  0
 13  8  1  0
 14  3  1  0
 15  2  1  0
 16 14  2  0
 17  7  1  0
 18 16  1  0
 19 10  1  0
 20 13  1  0
 21 17  2  0
 22 19  2  0
 10  7  1  0
 13 18  2  0
 22 21  1  0
  8 23  1  0
  9 24  1  0
 11 25  1  0
 12 26  1  0
 14 27  1  0
 15 28  1  0
 15 29  1  0
 15 30  1  0
 16 31  1  0
 17 32  1  0
 18 33  1  0
 19 34  1  0
 20 35  1  0
 20 36  1  0
 20 37  1  0
 21 38  1  0
 22 39  1  0
M  END
$$$$
