
     RDKit          3D

 39 41  0  0  0  0  0  0  0  0999 V2000
    0.6320    1.3760    2.0221 C   0  0  0  0  0  0  0  0  0  0  0  0
    1.2462    0.3412    1.3067 N   0  0  0  0  0  0  0  0  0  0  0  0
    2.3943    0.5237    0.4547 C   0  0  0  0  0  0  0  0  0  0  0  0
   -0.7646    1.3681    2.1197 O   0  0  0  0  0  0  0  0  0  0  0  0
    1.3734    2.5670    2.9376 S   0  0  0  0  0  0  0  0  0  0  0  0
   -1.6036    0.9396    1.0640 C   0  0  0  0  0  0  0  0  0  0  0  0
   -3.6308   -0.2227    0.4319 C   0  0  0  0  0  0  0  0  0  0  0  0
    3.1876   -0.5648    0.0496 C   0  0  0  0  0  0  0  0  0  0  0  0
   -2.7439    0.2223    1.4227 C   0  0  0  0  0  0  0  0  0  0  0  0
   -3.3631    0.0797   -0.9254 C   0  0  0  0  0  0  0  0  0  0  0  0
   -2.2191    0.8273   -1.2549 C   0  0  0  0  0  0  0  0  0  0  0  0
   -1.3421    1.2664   -0.2625 C   0  0  0  0  0  0  0  0  0  0  0  0
    4.2853   -0.4028   -0.8148 C   0  0  0  0  0  0  0  0  0  0  0  0
    2.7222    1.7846   -0.0653 C   0  0  0  0  0  0  0  0  0  0  0  0
    0.7720   -1.0183    1.5537 C   0  0  0  0  0  0  0  0  0  0  0  0
    3.8201    1.9611   -0.9137 C   0  0  0  0  0  0  0  0  0  0  0  0
   -4.7795   -0.9612    0.7582 C   0  0  0  0  0  0  0  0  0  0  0  0
    4.6054    0.8733   -1.2791 C   0  0  0  0  0  0  0  0  0  0  0  0
   -4.2519   -0.3690   -1.9151 C   0  0  0  0  0  0  0  0  0  0  0  0
    5.1388   -1.5810   -1.1831 C   0  0  0  0  0  0  0  0  0  0  0  0
   -5.6519   -1.3994   -0.2392 C   0  0  0  0  0  0  0  0  0  0  0  0
   -5.3882   -1.1044   -1.5736 C   0  0  0  0  0  0  0  0  0  0  0  0
    2.9829   -1.5696    0.4067 H   0  0  0  0  0  0  0  0  0  0  0  0
   -2.9321    0.0109    2.4719 H   0  0  0  0  0  0  0  0  0  0  0  0
   -2.0066    1.0784   -2.2919 H   0  0  0  0  0  0  0  0  0  0  0  0
   -0.4746    1.8576   -0.5368 H   0  0  0  0  0  0  0  0  0  0  0  0
    2.1220    2.6631    0.1510 H   0  0  0  0  0  0  0  0  0  0  0  0
    0.4871   -1.4879    0.6074 H   0  0  0  0  0  0  0  0  0  0  0  0
    1.5594   -1.5952    2.0493 H   0  0  0  0  0  0  0  0  0  0  0  0
   -0.0853   -1.0319    2.2326 H   0  0  0  0  0  0  0  0  0  0  0  0
    4.0567    2.9531   -1.2906 H   0  0  0  0  0  0  0  0  0  0  0  0
   -5.0044   -1.2002    1.7953 H   0  0  0  0  0  0  0  0  0  0  0  0
    5.4611    1.0267   -1.9324 H   0  0  0  0  0  0  0  0  0  0  0  0
   -4.0659   -0.1463   -2.9635 H   0  0  0  0  0  0  0  0  0  0  0  0
    5.6229   -1.4269   -2.1533 H   0  0  0  0  0  0  0  0  0  0  0  0
    5.9116   -1.7347   -0.4238 H   0  0  0  0  0  0  0  0  0  0  0  0
    4.5334   -2.4899   -1.2639 H   0  0  0  0  0  0  0  0  0  0  0  0
   -6.5382   -1.9696    0.0270 H   0  0  0  0  0  0  0  0  0  0  0  0
   -6.0683   -1.4441   -2.3505 H   0  0  0  0  0  0  0  0  0  0  0  0
  2  1  1  0
  3  2  1  0
  4  1  1  0
  5  1  2  0
  6  4  1  0
  7  9  2  0
  8  3  2  0
  9  6  1  0
 10 11  2  0
 11 12  1  0
 12  6  2  0
 13  8  1  0
 14  3  1  0
 15  2  1  0
 16 14  2  0
 17  7  1  0
 18 16  1  0
 19 10  1  0
 20 13  1  0
 21 17  2  0
 22 19  2  0
 10  7  1  0
 13 18  2  0
 22 21  1  0
  8 23  1  0
  9 24  1  0
 11 25  1  0
 12 26  1  0
 14 27  1  0
 15 28  1  0
 15 29  1  0
 15 30  1  0
 16 31  1  0
 17 32  1  0
 18 33  1  0
 19 34  1  0
 20 35  1  0
 20 36  1  0
 20 37  1  0
 21 38  1  0
 22 39  1  0
M  END
$$$$
