
     RDKit          3D

 22 24  0  0  0  0  0  0  0  0999 V2000
   -1.3796   -0.6991    0.4156 C   0  0  0  0  0  0  0  0  0  0  0  0
   -1.5970   -1.3416   -0.8324 N   0  0  0  0  0  0  0  0  0  0  0  0
   -2.1605   -0.6139   -1.9126 C   0  0  0  0  0  0  0  0  0  0  0  0
   -0.8343   -1.3374    1.5202 O   0  0  0  0  0  0  0  0  0  0  0  0
   -1.7840    0.8917    0.6023 S   0  0  0  0  0  0  0  0  0  0  0  0
    0.4321   -0.9277    1.9192 C   0  0  0  0  0  0  0  0  0  0  0  0
    2.3616    0.4928    1.6154 C   0  0  0  0  0  0  0  0  0  0  0  0
   -2.5104    0.7072   -1.8012 C   0  0  0  0  0  0  0  0  0  0  0  0
    1.1014    0.0741    1.2310 C   0  0  0  0  0  0  0  0  0  0  0  0
    2.9557   -0.1047    2.7069 C   0  0  0  0  0  0  0  0  0  0  0  0
    2.3106   -1.1126    3.4187 C   0  0  0  0  0  0  0  0  0  0  0  0
    1.0442   -1.5179    3.0147 C   0  0  0  0  0  0  0  0  0  0  0  0
   -3.0631    1.3824   -2.8954 C   0  0  0  0  0  0  0  0  0  0  0  0
   -2.3780   -1.2242   -3.1316 C   0  0  0  0  0  0  0  0  0  0  0  0
   -1.2249   -2.7407   -0.9460 C   0  0  0  0  0  0  0  0  0  0  0  0
   -2.9209   -0.5808   -4.2244 C   0  0  0  0  0  0  0  0  0  0  0  0
    3.0018    1.4943    0.9075 C   0  0  0  0  0  0  0  0  0  0  0  0
   -3.2701    0.7496   -4.1021 C   0  0  0  0  0  0  0  0  0  0  0  0
    4.2312    0.3225    3.0920 C   0  0  0  0  0  0  0  0  0  0  0  0
   -3.4440    2.8296   -2.7657 C   0  0  0  0  0  0  0  0  0  0  0  0
    4.2606    1.9228    1.2798 C   0  0  0  0  0  0  0  0  0  0  0  0
    4.8675    1.3335    2.3706 C   0  0  0  0  0  0  0  0  0  0  0  0
  2  1  1  0
  3  2  1  0
  4  1  1  0
  5  1  2  0
  6  4  1  0
  7  9  2  0
  8  3  2  0
  9  6  1  0
 10 11  2  0
 11 12  1  0
 12  6  2  0
 13  8  1  0
 14  3  1  0
 15  2  1  0
 16 14  2  0
 17  7  1  0
 18 16  1  0
 19 10  1  0
 20 13  1  0
 21 17  2  0
 22 19  2  0
 10  7  1  0
 13 18  2  0
 22 21  1  0
M  END
