
     RDKit          3D

 39 41  0  0  0  0  0  0  0  0999 V2000
   -1.1072   -1.7258    0.4852 C   0  0  0  0  0  0  0  0  0  0  0  0
   -2.3625   -1.6817   -0.1557 N   0  0  0  0  0  0  0  0  0  0  0  0
   -2.8210   -0.5322   -0.8904 C   0  0  0  0  0  0  0  0  0  0  0  0
   -0.2553   -0.6558    0.1467 O   0  0  0  0  0  0  0  0  0  0  0  0
   -0.5473   -2.9569    1.4849 S   0  0  0  0  0  0  0  0  0  0  0  0
    1.0218   -0.3871    0.6974 C   0  0  0  0  0  0  0  0  0  0  0  0
    3.4190   -0.3571    0.4211 C   0  0  0  0  0  0  0  0  0  0  0  0
   -2.5504    0.7724   -0.4487 C   0  0  0  0  0  0  0  0  0  0  0  0
    2.1447   -0.6583   -0.0794 C   0  0  0  0  0  0  0  0  0  0  0  0
    3.5409    0.2327    1.7043 C   0  0  0  0  0  0  0  0  0  0  0  0
    2.3828    0.5111    2.4533 C   0  0  0  0  0  0  0  0  0  0  0  0
    1.1183    0.2096    1.9491 C   0  0  0  0  0  0  0  0  0  0  0  0
   -3.0185    1.8975   -1.1474 C   0  0  0  0  0  0  0  0  0  0  0  0
   -3.5970   -0.6840   -2.0494 C   0  0  0  0  0  0  0  0  0  0  0  0
   -3.2187   -2.8729   -0.2026 C   0  0  0  0  0  0  0  0  0  0  0  0
   -4.0552    0.4282   -2.7610 C   0  0  0  0  0  0  0  0  0  0  0  0
    4.5776   -0.6269   -0.3244 C   0  0  0  0  0  0  0  0  0  0  0  0
   -3.7598    1.7141   -2.3166 C   0  0  0  0  0  0  0  0  0  0  0  0
    4.8195    0.5313    2.2009 C   0  0  0  0  0  0  0  0  0  0  0  0
   -2.6780    3.2782   -0.6690 C   0  0  0  0  0  0  0  0  0  0  0  0
    5.8405   -0.3228    0.1860 C   0  0  0  0  0  0  0  0  0  0  0  0
    5.9613    0.2550    1.4466 C   0  0  0  0  0  0  0  0  0  0  0  0
   -2.0003    0.9373    0.4744 H   0  0  0  0  0  0  0  0  0  0  0  0
    2.0208   -1.1029   -1.0623 H   0  0  0  0  0  0  0  0  0  0  0  0
    2.4618    0.9676    3.4373 H   0  0  0  0  0  0  0  0  0  0  0  0
    0.2286    0.4338    2.5279 H   0  0  0  0  0  0  0  0  0  0  0  0
   -3.8278   -1.6683   -2.4467 H   0  0  0  0  0  0  0  0  0  0  0  0
   -4.2717   -2.5938   -0.3131 H   0  0  0  0  0  0  0  0  0  0  0  0
   -2.9018   -3.5012   -1.0411 H   0  0  0  0  0  0  0  0  0  0  0  0
   -3.1482   -3.4547    0.7194 H   0  0  0  0  0  0  0  0  0  0  0  0
   -4.6364    0.2889   -3.6690 H   0  0  0  0  0  0  0  0  0  0  0  0
    4.5038   -1.0796   -1.3107 H   0  0  0  0  0  0  0  0  0  0  0  0
   -4.1147    2.5708   -2.8849 H   0  0  0  0  0  0  0  0  0  0  0  0
    4.9360    0.9828    3.1836 H   0  0  0  0  0  0  0  0  0  0  0  0
   -3.4306    4.0036   -0.9953 H   0  0  0  0  0  0  0  0  0  0  0  0
   -2.6458    3.3143    0.4250 H   0  0  0  0  0  0  0  0  0  0  0  0
   -1.7029    3.5804   -1.0634 H   0  0  0  0  0  0  0  0  0  0  0  0
    6.7293   -0.5386   -0.4011 H   0  0  0  0  0  0  0  0  0  0  0  0
    6.9447    0.4909    1.8448 H   0  0  0  0  0  0  0  0  0  0  0  0
  2  1  1  0
  3  2  1  0
  4  1  1  0
  5  1  2  0
  6  4  1  0
  7  9  2  0
  8  3  2  0
  9  6  1  0
 10 11  2  0
 11 12  1  0
 12  6  2  0
 13  8  1  0
 14  3  1  0
 15  2  1  0
 16 14  2  0
 17  7  1  0
 18 16  1  0
 19 10  1  0
 20 13  1  0
 21 17  2  0
 22 19  2  0
 10  7  1  0
 13 18  2  0
 22 21  1  0
  8 23  1  0
  9 24  1  0
 11 25  1  0
 12 26  1  0
 14 27  1  0
 15 28  1  0
 15 29  1  0
 15 30  1  0
 16 31  1  0
 17 32  1  0
 18 33  1  0
 19 34  1  0
 20 35  1  0
 20 36  1  0
 20 37  1  0
 21 38  1  0
 22 39  1  0
M  END
$$$$
