
     RDKit          3D

 39 41  0  0  0  0  0  0  0  0999 V2000
   -0.5600   -1.1949   -2.3864 C   0  0  0  0  0  0  0  0  0  0  0  0
   -1.1551   -0.1620   -1.6522 N   0  0  0  0  0  0  0  0  0  0  0  0
   -2.3806   -0.3072   -0.9075 C   0  0  0  0  0  0  0  0  0  0  0  0
    0.8368   -1.2892   -2.3736 O   0  0  0  0  0  0  0  0  0  0  0  0
   -1.3067   -2.2656   -3.4362 S   0  0  0  0  0  0  0  0  0  0  0  0
    1.6136   -0.9917   -1.2290 C   0  0  0  0  0  0  0  0  0  0  0  0
    3.6586   -0.0280   -0.3631 C   0  0  0  0  0  0  0  0  0  0  0  0
   -3.1220    0.8124   -0.4892 C   0  0  0  0  0  0  0  0  0  0  0  0
    2.8277   -0.3423   -1.4481 C   0  0  0  0  0  0  0  0  0  0  0  0
    3.2585   -0.3926    0.9455 C   0  0  0  0  0  0  0  0  0  0  0  0
    2.0411   -1.0701    1.1331 C   0  0  0  0  0  0  0  0  0  0  0  0
    1.2206   -1.3790    0.0478 C   0  0  0  0  0  0  0  0  0  0  0  0
   -4.3059    0.6817    0.2590 C   0  0  0  0  0  0  0  0  0  0  0  0
   -2.8406   -1.5687   -0.5016 C   0  0  0  0  0  0  0  0  0  0  0  0
   -0.5661    1.1696   -1.7708 C   0  0  0  0  0  0  0  0  0  0  0  0
   -4.0081   -1.7111    0.2554 C   0  0  0  0  0  0  0  0  0  0  0  0
    4.8797    0.6397   -0.5479 C   0  0  0  0  0  0  0  0  0  0  0  0
   -4.7385   -0.5903    0.6347 C   0  0  0  0  0  0  0  0  0  0  0  0
    4.0917   -0.0748    2.0298 C   0  0  0  0  0  0  0  0  0  0  0  0
   -5.0618    1.9014    0.6987 C   0  0  0  0  0  0  0  0  0  0  0  0
    5.6953    0.9479    0.5421 C   0  0  0  0  0  0  0  0  0  0  0  0
    5.3016    0.5918    1.8287 C   0  0  0  0  0  0  0  0  0  0  0  0
   -2.8078    1.8194   -0.7464 H   0  0  0  0  0  0  0  0  0  0  0  0
    3.1167   -0.0813   -2.4626 H   0  0  0  0  0  0  0  0  0  0  0  0
    1.7262   -1.3679    2.1310 H   0  0  0  0  0  0  0  0  0  0  0  0
    0.2937   -1.9184    0.2127 H   0  0  0  0  0  0  0  0  0  0  0  0
   -2.2905   -2.4761   -0.7313 H   0  0  0  0  0  0  0  0  0  0  0  0
   -0.3248    1.5566   -0.7763 H   0  0  0  0  0  0  0  0  0  0  0  0
   -1.2678    1.8348   -2.2842 H   0  0  0  0  0  0  0  0  0  0  0  0
    0.3415    1.1589   -2.3807 H   0  0  0  0  0  0  0  0  0  0  0  0
   -4.3395   -2.7024    0.5547 H   0  0  0  0  0  0  0  0  0  0  0  0
    5.2062    0.9247   -1.5456 H   0  0  0  0  0  0  0  0  0  0  0  0
   -5.6412   -0.7158    1.2280 H   0  0  0  0  0  0  0  0  0  0  0  0
    3.8041   -0.3471    3.0429 H   0  0  0  0  0  0  0  0  0  0  0  0
   -6.1231    1.6741    0.8446 H   0  0  0  0  0  0  0  0  0  0  0  0
   -5.0006    2.6909   -0.0577 H   0  0  0  0  0  0  0  0  0  0  0  0
   -4.6491    2.2778    1.6397 H   0  0  0  0  0  0  0  0  0  0  0  0
    6.6387    1.4645    0.3852 H   0  0  0  0  0  0  0  0  0  0  0  0
    5.9372    0.8302    2.6777 H   0  0  0  0  0  0  0  0  0  0  0  0
  2  1  1  0
  3  2  1  0
  4  1  1  0
  5  1  2  0
  6  4  1  0
  7  9  2  0
  8  3  2  0
  9  6  1  0
 10 11  2  0
 11 12  1  0
 12  6  2  0
 13  8  1  0
 14  3  1  0
 15  2  1  0
 16 14  2  0
 17  7  1  0
 18 16  1  0
 19 10  1  0
 20 13  1  0
 21 17  2  0
 22 19  2  0
 10  7  1  0
 13 18  2  0
 22 21  1  0
  8 23  1  0
  9 24  1  0
 11 25  1  0
 12 26  1  0
 14 27  1  0
 15 28  1  0
 15 29  1  0
 15 30  1  0
 16 31  1  0
 17 32  1  0
 18 33  1  0
 19 34  1  0
 20 35  1  0
 20 36  1  0
 20 37  1  0
 21 38  1  0
 22 39  1  0
M  END
$$$$
