
     RDKit          3D

 39 41  0  0  0  0  0  0  0  0999 V2000
   -0.9685    1.0364   -1.9420 C   0  0  0  0  0  0  0  0  0  0  0  0
   -1.3786   -0.1570   -1.3357 N   0  0  0  0  0  0  0  0  0  0  0  0
   -2.4957   -0.2567   -0.4307 C   0  0  0  0  0  0  0  0  0  0  0  0
    0.4057    1.2595   -2.0892 O   0  0  0  0  0  0  0  0  0  0  0  0
   -1.9305    2.1930   -2.6789 S   0  0  0  0  0  0  0  0  0  0  0  0
    1.3547    0.8517   -1.1221 C   0  0  0  0  0  0  0  0  0  0  0  0
    3.5657   -0.0414   -0.7046 C   0  0  0  0  0  0  0  0  0  0  0  0
   -2.9835    0.8698    0.2531 C   0  0  0  0  0  0  0  0  0  0  0  0
    2.5702    0.3676   -1.6036 C   0  0  0  0  0  0  0  0  0  0  0  0
    3.3273    0.0601    0.6876 C   0  0  0  0  0  0  0  0  0  0  0  0
    2.1020    0.5766    1.1438 C   0  0  0  0  0  0  0  0  0  0  0  0
    1.1172    0.9815    0.2422 C   0  0  0  0  0  0  0  0  0  0  0  0
   -4.0573    0.7844    1.1566 C   0  0  0  0  0  0  0  0  0  0  0  0
   -3.0899   -1.4938   -0.1353 C   0  0  0  0  0  0  0  0  0  0  0  0
   -0.7173   -1.3879   -1.7622 C   0  0  0  0  0  0  0  0  0  0  0  0
   -4.1495   -1.5944    0.7728 C   0  0  0  0  0  0  0  0  0  0  0  0
    4.7944   -0.5485   -1.1567 C   0  0  0  0  0  0  0  0  0  0  0  0
   -4.6319   -0.4598    1.4165 C   0  0  0  0  0  0  0  0  0  0  0  0
    4.3251   -0.3522    1.5850 C   0  0  0  0  0  0  0  0  0  0  0  0
   -4.5335    2.0095    1.8807 C   0  0  0  0  0  0  0  0  0  0  0  0
    5.7748   -0.9539   -0.2499 C   0  0  0  0  0  0  0  0  0  0  0  0
    5.5403   -0.8565    1.1186 C   0  0  0  0  0  0  0  0  0  0  0  0
   -2.5197    1.8436    0.1219 H   0  0  0  0  0  0  0  0  0  0  0  0
    2.7326    0.3082   -2.6764 H   0  0  0  0  0  0  0  0  0  0  0  0
    1.9091    0.6724    2.2102 H   0  0  0  0  0  0  0  0  0  0  0  0
    0.1857    1.3942    0.6154 H   0  0  0  0  0  0  0  0  0  0  0  0
   -2.7598   -2.4141   -0.6059 H   0  0  0  0  0  0  0  0  0  0  0  0
   -1.4338   -2.0220   -2.2941 H   0  0  0  0  0  0  0  0  0  0  0  0
    0.0934   -1.1890   -2.4686 H   0  0  0  0  0  0  0  0  0  0  0  0
   -0.3127   -1.9108   -0.8903 H   0  0  0  0  0  0  0  0  0  0  0  0
   -4.5967   -2.5641    0.9772 H   0  0  0  0  0  0  0  0  0  0  0  0
    4.9978   -0.6307   -2.2222 H   0  0  0  0  0  0  0  0  0  0  0  0
   -5.4525   -0.5532    2.1239 H   0  0  0  0  0  0  0  0  0  0  0  0
    4.1632   -0.2813    2.6583 H   0  0  0  0  0  0  0  0  0  0  0  0
   -5.5870    1.9132    2.1639 H   0  0  0  0  0  0  0  0  0  0  0  0
   -3.9378    2.1643    2.7855 H   0  0  0  0  0  0  0  0  0  0  0  0
   -4.4491    2.8957    1.2430 H   0  0  0  0  0  0  0  0  0  0  0  0
    6.7221   -1.3440   -0.6131 H   0  0  0  0  0  0  0  0  0  0  0  0
    6.3043   -1.1707    1.8251 H   0  0  0  0  0  0  0  0  0  0  0  0
  2  1  1  0
  3  2  1  0
  4  1  1  0
  5  1  2  0
  6  4  1  0
  7  9  2  0
  8  3  2  0
  9  6  1  0
 10 11  2  0
 11 12  1  0
 12  6  2  0
 13  8  1  0
 14  3  1  0
 15  2  1  0
 16 14  2  0
 17  7  1  0
 18 16  1  0
 19 10  1  0
 20 13  1  0
 21 17  2  0
 22 19  2  0
 10  7  1  0
 13 18  2  0
 22 21  1  0
  8 23  1  0
  9 24  1  0
 11 25  1  0
 12 26  1  0
 14 27  1  0
 15 28  1  0
 15 29  1  0
 15 30  1  0
 16 31  1  0
 17 32  1  0
 18 33  1  0
 19 34  1  0
 20 35  1  0
 20 36  1  0
 20 37  1  0
 21 38  1  0
 22 39  1  0
M  END
$$$$
