
     RDKit          3D

 39 41  0  0  0  0  0  0  0  0999 V2000
   -0.3408   -2.2381   -1.1871 C   0  0  0  0  0  0  0  0  0  0  0  0
   -0.9847   -1.5833   -0.1304 N   0  0  0  0  0  0  0  0  0  0  0  0
   -2.2888   -0.9783   -0.2345 C   0  0  0  0  0  0  0  0  0  0  0  0
    1.0427   -2.0690   -1.3189 O   0  0  0  0  0  0  0  0  0  0  0  0
   -0.9959   -3.3558   -2.2490 S   0  0  0  0  0  0  0  0  0  0  0  0
    1.6956   -0.8470   -1.0314 C   0  0  0  0  0  0  0  0  0  0  0  0
    3.6590    0.2344   -0.1171 C   0  0  0  0  0  0  0  0  0  0  0  0
   -3.0421   -0.6578    0.9092 C   0  0  0  0  0  0  0  0  0  0  0  0
    2.9451   -0.9341   -0.4192 C   0  0  0  0  0  0  0  0  0  0  0  0
    3.1052    1.4929   -0.4559 C   0  0  0  0  0  0  0  0  0  0  0  0
    1.8549    1.5486   -1.0964 C   0  0  0  0  0  0  0  0  0  0  0  0
    1.1516    0.3808   -1.3936 C   0  0  0  0  0  0  0  0  0  0  0  0
   -4.2975   -0.0298    0.8196 C   0  0  0  0  0  0  0  0  0  0  0  0
   -2.8264   -0.6164   -1.4785 C   0  0  0  0  0  0  0  0  0  0  0  0
   -0.3483   -1.6436    1.1832 C   0  0  0  0  0  0  0  0  0  0  0  0
   -4.0801   -0.0050   -1.5816 C   0  0  0  0  0  0  0  0  0  0  0  0
    4.9123    0.1820    0.5136 C   0  0  0  0  0  0  0  0  0  0  0  0
   -4.8180    0.2780   -0.4376 C   0  0  0  0  0  0  0  0  0  0  0  0
    3.8214    2.6610   -0.1502 C   0  0  0  0  0  0  0  0  0  0  0  0
   -5.0942    0.2494    2.0604 C   0  0  0  0  0  0  0  0  0  0  0  0
    5.6101    1.3538    0.8102 C   0  0  0  0  0  0  0  0  0  0  0  0
    5.0653    2.5912    0.4794 C   0  0  0  0  0  0  0  0  0  0  0  0
   -2.6800   -0.9009    1.9036 H   0  0  0  0  0  0  0  0  0  0  0  0
    3.3529   -1.9120   -0.1776 H   0  0  0  0  0  0  0  0  0  0  0  0
    1.4222    2.5073   -1.3743 H   0  0  0  0  0  0  0  0  0  0  0  0
    0.1966    0.4454   -1.9045 H   0  0  0  0  0  0  0  0  0  0  0  0
   -2.2790   -0.7742   -2.4028 H   0  0  0  0  0  0  0  0  0  0  0  0
    0.6224   -2.1455    1.1411 H   0  0  0  0  0  0  0  0  0  0  0  0
   -0.9675   -2.2389    1.8618 H   0  0  0  0  0  0  0  0  0  0  0  0
   -0.2114   -0.6309    1.5741 H   0  0  0  0  0  0  0  0  0  0  0  0
   -4.4760    0.2522   -2.5610 H   0  0  0  0  0  0  0  0  0  0  0  0
    5.3561   -0.7752    0.7784 H   0  0  0  0  0  0  0  0  0  0  0  0
   -5.7951    0.7457   -0.5334 H   0  0  0  0  0  0  0  0  0  0  0  0
    3.4149    3.6377   -0.4033 H   0  0  0  0  0  0  0  0  0  0  0  0
   -5.7701    1.0978    1.9102 H   0  0  0  0  0  0  0  0  0  0  0  0
   -5.6867   -0.6302    2.3300 H   0  0  0  0  0  0  0  0  0  0  0  0
   -4.4351    0.5045    2.8969 H   0  0  0  0  0  0  0  0  0  0  0  0
    6.5800    1.2993    1.2980 H   0  0  0  0  0  0  0  0  0  0  0  0
    5.6092    3.5039    0.7088 H   0  0  0  0  0  0  0  0  0  0  0  0
  2  1  1  0
  3  2  1  0
  4  1  1  0
  5  1  2  0
  6  4  1  0
  7  9  2  0
  8  3  2  0
  9  6  1  0
 10 11  2  0
 11 12  1  0
 12  6  2  0
 13  8  1  0
 14  3  1  0
 15  2  1  0
 16 14  2  0
 17  7  1  0
 18 16  1  0
 19 10  1  0
 20 13  1  0
 21 17  2  0
 22 19  2  0
 10  7  1  0
 13 18  2  0
 22 21  1  0
  8 23  1  0
  9 24  1  0
 11 25  1  0
 12 26  1  0
 14 27  1  0
 15 28  1  0
 15 29  1  0
 15 30  1  0
 16 31  1  0
 17 32  1  0
 18 33  1  0
 19 34  1  0
 20 35  1  0
 20 36  1  0
 20 37  1  0
 21 38  1  0
 22 39  1  0
M  END
$$$$
