
     RDKit          3D

 38 36  0  0  0  0  0  0  0  0999 V2000
   -2.3235   -0.4738   -0.0583 C   0  0  0  0  0  0  0  0  0  0  0  0
   -0.9894   -1.1491    0.2264 C   0  0  0  0  0  0  0  0  0  0  0  0
    0.1111   -0.1770    0.6883 C   0  0  2  0  0  0  0  0  0  0  0  0
    0.4806    0.8454   -0.3993 C   0  0  0  0  0  0  0  0  0  0  0  0
    1.4706    1.7385    0.1098 O   0  0  0  0  0  0  0  0  0  0  0  0
    1.8281    2.6659   -0.9191 N   0  0  0  0  0  0  0  0  0  0  0  0
    2.6881    3.4561   -0.5191 O   0  0  0  0  0  0  0  0  0  0  0  0
    1.3477   -0.9734    1.1247 C   0  0  0  0  0  0  0  0  0  0  0  0
   -2.3233   -0.4990   -0.2786 C   0  0  0  0  0  0  0  0  0  0  0  0
   -0.9307   -0.0124    0.1334 C   0  0  0  0  0  0  0  0  0  0  0  0
   -0.7086    1.4063   -0.3905 C   0  0  0  0  0  0  0  0  0  0  0  0
    0.1331   -1.0171   -0.3557 C   0  0  0  0  0  0  0  0  0  0  0  0
    1.5565   -0.7104    0.1120 C   0  0  0  0  0  0  0  0  0  0  0  0
    2.1091    0.3332   -0.6838 O   0  0  0  0  0  0  0  0  0  0  0  0
    3.4327    0.6153   -0.2204 N   0  0  0  0  0  0  0  0  0  0  0  0
    3.9426    1.5282   -0.8766 O   0  0  0  0  0  0  0  0  0  0  0  0
   -3.0887   -1.2293   -0.2648 H   0  0  0  0  0  0  0  0  0  0  0  0
   -2.2658    0.1811   -0.9323 H   0  0  0  0  0  0  0  0  0  0  0  0
   -2.6559    0.1184    0.8000 H   0  0  0  0  0  0  0  0  0  0  0  0
   -1.1524   -1.9029    1.0069 H   0  0  0  0  0  0  0  0  0  0  0  0
   -0.6620   -1.6902   -0.6698 H   0  0  0  0  0  0  0  0  0  0  0  0
   -0.2441    0.3708    1.5712 H   0  0  0  0  0  0  0  0  0  0  0  0
    0.8672    0.3272   -1.2867 H   0  0  0  0  0  0  0  0  0  0  0  0
   -0.4014    1.4289   -0.6868 H   0  0  0  0  0  0  0  0  0  0  0  0
    2.1217   -0.3152    1.5324 H   0  0  0  0  0  0  0  0  0  0  0  0
    1.0885   -1.6959    1.9061 H   0  0  0  0  0  0  0  0  0  0  0  0
    1.7797   -1.5255    0.2830 H   0  0  0  0  0  0  0  0  0  0  0  0
   -2.5229   -1.4973    0.1252 H   0  0  0  0  0  0  0  0  0  0  0  0
   -3.0997    0.1734    0.1017 H   0  0  0  0  0  0  0  0  0  0  0  0
   -2.4208   -0.5477   -1.3686 H   0  0  0  0  0  0  0  0  0  0  0  0
   -0.9008    0.0210    1.2300 H   0  0  0  0  0  0  0  0  0  0  0  0
    0.1969    1.8493    0.0341 H   0  0  0  0  0  0  0  0  0  0  0  0
   -0.6212    1.4186   -1.4821 H   0  0  0  0  0  0  0  0  0  0  0  0
   -1.5430    2.0592   -0.1117 H   0  0  0  0  0  0  0  0  0  0  0  0
    0.1099   -1.0681   -1.4516 H   0  0  0  0  0  0  0  0  0  0  0  0
   -0.1369   -2.0111    0.0229 H   0  0  0  0  0  0  0  0  0  0  0  0
    1.5581   -0.4294    1.1726 H   0  0  0  0  0  0  0  0  0  0  0  0
    2.1689   -1.6122   -0.0140 H   0  0  0  0  0  0  0  0  0  0  0  0
  1  2  1  0
  2  3  1  0
  3  4  1  0
  4  5  1  0
  5  6  1  0
  6  7  2  0
  3  8  1  0
  9 10  1  0
 10 11  1  0
 10 12  1  0
 12 13  1  0
 13 14  1  0
 14 15  1  0
 15 16  2  0
  1 17  1  0
  1 18  1  0
  1 19  1  0
  2 20  1  0
  2 21  1  0
  3 22  1  1
  4 23  1  0
  4 24  1  0
  8 25  1  0
  8 26  1  0
  8 27  1  0
  9 28  1  0
  9 29  1  0
  9 30  1  0
 10 31  1  0
 11 32  1  0
 11 33  1  0
 11 34  1  0
 12 35  1  0
 12 36  1  0
 13 37  1  0
 13 38  1  0
M  END
$$$$
