
     RDKit          3D

 38 36  0  0  0  0  0  0  0  0999 V2000
   -1.6505   -1.2119   -1.0362 C   0  0  0  0  0  0  0  0  0  0  0  0
   -0.4959   -1.0043   -0.0656 C   0  0  0  0  0  0  0  0  0  0  0  0
   -0.0428    0.4654    0.0520 C   0  0  2  0  0  0  0  0  0  0  0  0
    1.1923    0.5822    0.9625 C   0  0  0  0  0  0  0  0  0  0  0  0
    2.2774   -0.1386    0.3820 O   0  0  0  0  0  0  0  0  0  0  0  0
    3.4131   -0.0364    1.2457 N   0  0  0  0  0  0  0  0  0  0  0  0
    4.3760   -0.6530    0.7802 O   0  0  0  0  0  0  0  0  0  0  0  0
   -1.1563    1.3716    0.5806 C   0  0  0  0  0  0  0  0  0  0  0  0
   -0.5982    1.3855    0.7638 C   0  0  0  0  0  0  0  0  0  0  0  0
   -0.9388   -0.0966    0.6091 C   0  0  0  0  0  0  0  0  0  0  0  0
   -2.3514   -0.2410    0.0347 C   0  0  0  0  0  0  0  0  0  0  0  0
    0.0615   -0.8630   -0.2809 C   0  0  0  0  0  0  0  0  0  0  0  0
    1.4899   -0.9065    0.2639 C   0  0  0  0  0  0  0  0  0  0  0  0
    2.1399    0.3340    0.0065 O   0  0  0  0  0  0  0  0  0  0  0  0
    3.4671    0.2783    0.5373 N   0  0  0  0  0  0  0  0  0  0  0  0
    4.0610    1.3439    0.3479 O   0  0  0  0  0  0  0  0  0  0  0  0
   -1.8503   -2.2817   -1.1568 H   0  0  0  0  0  0  0  0  0  0  0  0
   -2.5706   -0.7453   -0.6730 H   0  0  0  0  0  0  0  0  0  0  0  0
   -1.4150   -0.7985   -2.0219 H   0  0  0  0  0  0  0  0  0  0  0  0
   -0.7848   -1.3872    0.9208 H   0  0  0  0  0  0  0  0  0  0  0  0
    0.3444   -1.6202   -0.4080 H   0  0  0  0  0  0  0  0  0  0  0  0
    0.2415    0.8100   -0.9511 H   0  0  0  0  0  0  0  0  0  0  0  0
    1.4772    1.6373    1.0653 H   0  0  0  0  0  0  0  0  0  0  0  0
    0.9662    0.1796    1.9587 H   0  0  0  0  0  0  0  0  0  0  0  0
   -1.5238    1.0227    1.5515 H   0  0  0  0  0  0  0  0  0  0  0  0
   -2.0024    1.4099   -0.1119 H   0  0  0  0  0  0  0  0  0  0  0  0
   -0.7956    2.3984    0.7050 H   0  0  0  0  0  0  0  0  0  0  0  0
   -1.3899    1.9119    1.3083 H   0  0  0  0  0  0  0  0  0  0  0  0
   -0.4795    1.8706   -0.2108 H   0  0  0  0  0  0  0  0  0  0  0  0
    0.3251    1.5235    1.3338 H   0  0  0  0  0  0  0  0  0  0  0  0
   -0.9375   -0.5523    1.6076 H   0  0  0  0  0  0  0  0  0  0  0  0
   -2.4213    0.2036   -0.9640 H   0  0  0  0  0  0  0  0  0  0  0  0
   -3.0865    0.2536    0.6784 H   0  0  0  0  0  0  0  0  0  0  0  0
   -2.6351   -1.2960   -0.0425 H   0  0  0  0  0  0  0  0  0  0  0  0
   -0.2915   -1.8975   -0.3781 H   0  0  0  0  0  0  0  0  0  0  0  0
    0.0655   -0.4239   -1.2866 H   0  0  0  0  0  0  0  0  0  0  0  0
    2.0376   -1.7055   -0.2518 H   0  0  0  0  0  0  0  0  0  0  0  0
    1.4822   -1.1226    1.3395 H   0  0  0  0  0  0  0  0  0  0  0  0
  1  2  1  0
  2  3  1  0
  3  4  1  0
  4  5  1  0
  5  6  1  0
  6  7  2  0
  3  8  1  0
  9 10  1  0
 10 11  1  0
 10 12  1  0
 12 13  1  0
 13 14  1  0
 14 15  1  0
 15 16  2  0
  1 17  1  0
  1 18  1  0
  1 19  1  0
  2 20  1  0
  2 21  1  0
  3 22  1  6
  4 23  1  0
  4 24  1  0
  8 25  1  0
  8 26  1  0
  8 27  1  0
  9 28  1  0
  9 29  1  0
  9 30  1  0
 10 31  1  0
 11 32  1  0
 11 33  1  0
 11 34  1  0
 12 35  1  0
 12 36  1  0
 13 37  1  0
 13 38  1  0
M  END
$$$$
