
     RDKit          3D

 38 36  0  0  0  0  0  0  0  0999 V2000
   -2.0071    1.4024   -0.0902 C   0  0  0  0  0  0  0  0  0  0  0  0
   -0.6439    0.9477    0.4125 C   0  0  0  0  0  0  0  0  0  0  0  0
   -0.3300   -0.5258    0.0872 C   0  0  2  0  0  0  0  0  0  0  0  0
    0.9631   -0.9726    0.7931 C   0  0  0  0  0  0  0  0  0  0  0  0
    2.0688   -0.2032    0.3274 O   0  0  0  0  0  0  0  0  0  0  0  0
    3.2518   -0.6406    1.0019 N   0  0  0  0  0  0  0  0  0  0  0  0
    4.2356    0.0035    0.6260 O   0  0  0  0  0  0  0  0  0  0  0  0
   -0.2252   -0.7633   -1.4225 C   0  0  0  0  0  0  0  0  0  0  0  0
   -1.6634    0.5004    0.7984 C   0  0  0  0  0  0  0  0  0  0  0  0
   -0.9193   -0.5592   -0.0153 C   0  0  0  0  0  0  0  0  0  0  0  0
   -1.7852   -1.0073   -1.1951 C   0  0  0  0  0  0  0  0  0  0  0  0
    0.4406   -0.0571   -0.5273 C   0  0  0  0  0  0  0  0  0  0  0  0
    1.4309    0.2828    0.5849 C   0  0  0  0  0  0  0  0  0  0  0  0
    2.6764    0.6235   -0.0220 O   0  0  0  0  0  0  0  0  0  0  0  0
    3.6207    0.9313    1.0077 N   0  0  0  0  0  0  0  0  0  0  0  0
    4.7158    1.2328    0.5240 O   0  0  0  0  0  0  0  0  0  0  0  0
   -2.2147    2.4193    0.2584 H   0  0  0  0  0  0  0  0  0  0  0  0
   -2.8019    0.7485    0.2822 H   0  0  0  0  0  0  0  0  0  0  0  0
   -2.0496    1.4139   -1.1831 H   0  0  0  0  0  0  0  0  0  0  0  0
    0.1267    1.6052   -0.0076 H   0  0  0  0  0  0  0  0  0  0  0  0
   -0.6189    1.0869    1.5005 H   0  0  0  0  0  0  0  0  0  0  0  0
   -1.1461   -1.1501    0.4734 H   0  0  0  0  0  0  0  0  0  0  0  0
    1.1423   -2.0367    0.5903 H   0  0  0  0  0  0  0  0  0  0  0  0
    0.8524   -0.8423    1.8776 H   0  0  0  0  0  0  0  0  0  0  0  0
    0.5086   -0.0953   -1.8856 H   0  0  0  0  0  0  0  0  0  0  0  0
   -1.1885   -0.6020   -1.9161 H   0  0  0  0  0  0  0  0  0  0  0  0
    0.0764   -1.7953   -1.6322 H   0  0  0  0  0  0  0  0  0  0  0  0
   -2.6541    0.1381    1.0937 H   0  0  0  0  0  0  0  0  0  0  0  0
   -1.7990    1.4213    0.2212 H   0  0  0  0  0  0  0  0  0  0  0  0
   -1.1235    0.7492    1.7169 H   0  0  0  0  0  0  0  0  0  0  0  0
   -0.7522   -1.4318    0.6288 H   0  0  0  0  0  0  0  0  0  0  0  0
   -2.7440   -1.4049   -0.8457 H   0  0  0  0  0  0  0  0  0  0  0  0
   -1.9914   -0.1744   -1.8761 H   0  0  0  0  0  0  0  0  0  0  0  0
   -1.2863   -1.7973   -1.7664 H   0  0  0  0  0  0  0  0  0  0  0  0
    0.3054    0.8231   -1.1696 H   0  0  0  0  0  0  0  0  0  0  0  0
    0.8934   -0.8213   -1.1731 H   0  0  0  0  0  0  0  0  0  0  0  0
    1.5647   -0.5836    1.2444 H   0  0  0  0  0  0  0  0  0  0  0  0
    1.0705    1.1345    1.1730 H   0  0  0  0  0  0  0  0  0  0  0  0
  1  2  1  0
  2  3  1  0
  3  4  1  0
  4  5  1  0
  5  6  1  0
  6  7  2  0
  3  8  1  0
  9 10  1  0
 10 11  1  0
 10 12  1  0
 12 13  1  0
 13 14  1  0
 14 15  1  0
 15 16  2  0
  1 17  1  0
  1 18  1  0
  1 19  1  0
  2 20  1  0
  2 21  1  0
  3 22  1  1
  4 23  1  0
  4 24  1  0
  8 25  1  0
  8 26  1  0
  8 27  1  0
  9 28  1  0
  9 29  1  0
  9 30  1  0
 10 31  1  0
 11 32  1  0
 11 33  1  0
 11 34  1  0
 12 35  1  0
 12 36  1  0
 13 37  1  0
 13 38  1  0
M  END
$$$$
