
     RDKit          3D

 38 36  0  0  0  0  0  0  0  0999 V2000
   -1.3578   -1.5739   -0.1765 C   0  0  0  0  0  0  0  0  0  0  0  0
   -1.3371   -0.0784    0.1005 C   0  0  0  0  0  0  0  0  0  0  0  0
   -0.0970    0.6616   -0.4436 C   0  0  2  0  0  0  0  0  0  0  0  0
    1.2182    0.2062    0.2107 C   0  0  0  0  0  0  0  0  0  0  0  0
    1.5896   -1.0731   -0.2958 O   0  0  0  0  0  0  0  0  0  0  0  0
    2.7983   -1.4909    0.3455 N   0  0  0  0  0  0  0  0  0  0  0  0
    3.1458   -2.6054   -0.0559 O   0  0  0  0  0  0  0  0  0  0  0  0
   -0.2798    2.1677   -0.2308 C   0  0  0  0  0  0  0  0  0  0  0  0
   -2.3401   -0.1507    0.5274 C   0  0  0  0  0  0  0  0  0  0  0  0
   -0.9284   -0.3171   -0.0432 C   0  0  0  0  0  0  0  0  0  0  0  0
   -0.6582    0.7832   -1.0692 C   0  0  0  0  0  0  0  0  0  0  0  0
    0.0955   -0.3405    1.1106 C   0  0  0  0  0  0  0  0  0  0  0  0
    1.5318   -0.6374    0.6769 C   0  0  0  0  0  0  0  0  0  0  0  0
    2.1171    0.5348    0.1192 O   0  0  0  0  0  0  0  0  0  0  0  0
    3.4526    0.2318   -0.2939 N   0  0  0  0  0  0  0  0  0  0  0  0
    3.9915    1.2212   -0.7986 O   0  0  0  0  0  0  0  0  0  0  0  0
   -2.3359   -1.9889    0.0887 H   0  0  0  0  0  0  0  0  0  0  0  0
   -0.6101   -2.1033    0.4204 H   0  0  0  0  0  0  0  0  0  0  0  0
   -1.1782   -1.7834   -1.2355 H   0  0  0  0  0  0  0  0  0  0  0  0
   -1.4272    0.0852    1.1815 H   0  0  0  0  0  0  0  0  0  0  0  0
   -2.2347    0.3582   -0.3560 H   0  0  0  0  0  0  0  0  0  0  0  0
   -0.0366    0.4721   -1.5234 H   0  0  0  0  0  0  0  0  0  0  0  0
    1.1040    0.1639    1.3018 H   0  0  0  0  0  0  0  0  0  0  0  0
    2.0170    0.9199   -0.0296 H   0  0  0  0  0  0  0  0  0  0  0  0
   -1.1953    2.5226   -0.7159 H   0  0  0  0  0  0  0  0  0  0  0  0
   -0.3423    2.4136    0.8348 H   0  0  0  0  0  0  0  0  0  0  0  0
    0.5590    2.7264   -0.6596 H   0  0  0  0  0  0  0  0  0  0  0  0
   -2.4455    0.8035    1.0548 H   0  0  0  0  0  0  0  0  0  0  0  0
   -3.0895   -0.1817   -0.2707 H   0  0  0  0  0  0  0  0  0  0  0  0
   -2.5733   -0.9559    1.2322 H   0  0  0  0  0  0  0  0  0  0  0  0
   -0.8911   -1.2833   -0.5623 H   0  0  0  0  0  0  0  0  0  0  0  0
   -1.4669    0.8349   -1.8065 H   0  0  0  0  0  0  0  0  0  0  0  0
   -0.5767    1.7641   -0.5891 H   0  0  0  0  0  0  0  0  0  0  0  0
    0.2651    0.5915   -1.6235 H   0  0  0  0  0  0  0  0  0  0  0  0
   -0.2081   -1.1204    1.8203 H   0  0  0  0  0  0  0  0  0  0  0  0
    0.0643    0.6172    1.6453 H   0  0  0  0  0  0  0  0  0  0  0  0
    2.1104   -0.9346    1.5608 H   0  0  0  0  0  0  0  0  0  0  0  0
    1.5495   -1.4605   -0.0483 H   0  0  0  0  0  0  0  0  0  0  0  0
  1  2  1  0
  2  3  1  0
  3  4  1  0
  4  5  1  0
  5  6  1  0
  6  7  2  0
  3  8  1  0
  9 10  1  0
 10 11  1  0
 10 12  1  0
 12 13  1  0
 13 14  1  0
 14 15  1  0
 15 16  2  0
  1 17  1  0
  1 18  1  0
  1 19  1  0
  2 20  1  0
  2 21  1  0
  3 22  1  6
  4 23  1  0
  4 24  1  0
  8 25  1  0
  8 26  1  0
  8 27  1  0
  9 28  1  0
  9 29  1  0
  9 30  1  0
 10 31  1  0
 11 32  1  0
 11 33  1  0
 11 34  1  0
 12 35  1  0
 12 36  1  0
 13 37  1  0
 13 38  1  0
M  END
$$$$
