
     RDKit          3D

 16 14  0  0  0  0  0  0  0  0999 V2000
   -2.7670   -1.5132   -0.6686 C   0  0  0  0  0  0  0  0  0  0  0  0
   -1.3300   -1.2287   -0.2708 C   0  0  0  0  0  0  0  0  0  0  0  0
   -1.1303    0.2492   -0.0132 C   0  0  0  0  0  0  0  0  0  0  0  0
    0.2983    0.5606    0.3864 C   0  0  0  0  0  0  0  0  0  0  0  0
    1.1983    0.1833   -0.6213 O   0  0  0  0  0  0  0  0  0  0  0  0
    2.5397    0.4087   -0.3944 N   0  0  0  0  0  0  0  0  0  0  0  0
    3.1704   -0.3226    0.4012 O   0  0  0  0  0  0  0  0  0  0  0  0
   -1.9794    0.6376    1.1807 C   0  0  0  0  0  0  0  0  0  0  0  0
   -1.9008   -0.7247    0.0399 C   0  0  0  0  0  0  0  0  0  0  0  0
   -1.6546    0.7170   -0.0998 C   0  0  0  0  0  0  0  0  0  0  0  0
   -2.1470    1.6411    0.9246 C   0  0  0  0  0  0  0  0  0  0  0  0
   -0.5357    1.1442   -0.9669 C   0  0  0  0  0  0  0  0  0  0  0  0
    0.7322    0.5657   -0.4237 C   0  0  0  0  0  0  0  0  0  0  0  0
    0.6827   -0.8647   -0.3957 O   0  0  0  0  0  0  0  0  0  0  0  0
    1.8446   -1.4517    0.1043 N   0  0  0  0  0  0  0  0  0  0  0  0
    2.9786   -1.0269   -0.1822 O   0  0  0  0  0  0  0  0  0  0  0  0
  1  2  1  0
  2  3  1  0
  3  4  1  0
  4  5  1  0
  5  6  1  0
  6  7  2  0
  3  8  1  0
  9 10  1  0
 10 11  1  0
 10 12  1  0
 12 13  1  0
 13 14  1  0
 14 15  1  0
 15 16  2  0
M  END
