
     RDKit          3D

 38 36  0  0  0  0  0  0  0  0999 V2000
    2.3264    0.4249    0.2966 C   0  0  0  0  0  0  0  0  0  0  0  0
    1.3553   -0.6719   -0.1169 C   0  0  0  0  0  0  0  0  0  0  0  0
   -0.0329   -0.1482   -0.5268 C   0  0  2  0  0  0  0  0  0  0  0  0
   -0.7705    0.5265    0.6417 C   0  0  0  0  0  0  0  0  0  0  0  0
   -2.0262    1.0253    0.1818 O   0  0  0  0  0  0  0  0  0  0  0  0
   -2.7158    1.6241    1.2829 N   0  0  0  0  0  0  0  0  0  0  0  0
   -3.8123    2.0657    0.9269 O   0  0  0  0  0  0  0  0  0  0  0  0
   -0.8670   -1.3019   -1.0989 C   0  0  0  0  0  0  0  0  0  0  0  0
   -1.4835   -1.0947    0.7139 C   0  0  0  0  0  0  0  0  0  0  0  0
   -1.0243    0.1443   -0.0560 C   0  0  0  0  0  0  0  0  0  0  0  0
   -1.9982    1.2983    0.1937 C   0  0  0  0  0  0  0  0  0  0  0  0
    0.4023    0.5744    0.3227 C   0  0  0  0  0  0  0  0  0  0  0  0
    1.4705   -0.4617   -0.0216 C   0  0  0  0  0  0  0  0  0  0  0  0
    2.7462    0.1045    0.2743 O   0  0  0  0  0  0  0  0  0  0  0  0
    3.7603   -0.8489   -0.0561 N   0  0  0  0  0  0  0  0  0  0  0  0
    4.8837   -0.3975    0.1856 O   0  0  0  0  0  0  0  0  0  0  0  0
    3.3225    0.0006    0.4595 H   0  0  0  0  0  0  0  0  0  0  0  0
    2.4082    1.1914   -0.4803 H   0  0  0  0  0  0  0  0  0  0  0  0
    2.0186    0.9055    1.2295 H   0  0  0  0  0  0  0  0  0  0  0  0
    1.7979   -1.2136   -0.9622 H   0  0  0  0  0  0  0  0  0  0  0  0
    1.2583   -1.3940    0.7031 H   0  0  0  0  0  0  0  0  0  0  0  0
    0.0870    0.5891   -1.3316 H   0  0  0  0  0  0  0  0  0  0  0  0
   -0.1815    1.3662    1.0278 H   0  0  0  0  0  0  0  0  0  0  0  0
   -0.9308   -0.1961    1.4526 H   0  0  0  0  0  0  0  0  0  0  0  0
   -0.3476   -1.7780   -1.9375 H   0  0  0  0  0  0  0  0  0  0  0  0
   -1.0561   -2.0678   -0.3390 H   0  0  0  0  0  0  0  0  0  0  0  0
   -1.8333   -0.9477   -1.4722 H   0  0  0  0  0  0  0  0  0  0  0  0
   -1.4160   -0.9376    1.7957 H   0  0  0  0  0  0  0  0  0  0  0  0
   -0.8790   -1.9699    0.4574 H   0  0  0  0  0  0  0  0  0  0  0  0
   -2.5238   -1.3383    0.4723 H   0  0  0  0  0  0  0  0  0  0  0  0
   -1.0484   -0.0892   -1.1279 H   0  0  0  0  0  0  0  0  0  0  0  0
   -2.0222    1.5764    1.2529 H   0  0  0  0  0  0  0  0  0  0  0  0
   -1.7095    2.1833   -0.3831 H   0  0  0  0  0  0  0  0  0  0  0  0
   -3.0144    1.0225   -0.1075 H   0  0  0  0  0  0  0  0  0  0  0  0
    0.4592    0.8070    1.3943 H   0  0  0  0  0  0  0  0  0  0  0  0
    0.6505    1.5124   -0.1918 H   0  0  0  0  0  0  0  0  0  0  0  0
    1.4158   -0.7154   -1.0875 H   0  0  0  0  0  0  0  0  0  0  0  0
    1.3310   -1.3701    0.5755 H   0  0  0  0  0  0  0  0  0  0  0  0
  1  2  1  0
  2  3  1  0
  3  4  1  0
  4  5  1  0
  5  6  1  0
  6  7  2  0
  3  8  1  0
  9 10  1  0
 10 11  1  0
 10 12  1  0
 12 13  1  0
 13 14  1  0
 14 15  1  0
 15 16  2  0
  1 17  1  0
  1 18  1  0
  1 19  1  0
  2 20  1  0
  2 21  1  0
  3 22  1  6
  4 23  1  0
  4 24  1  0
  8 25  1  0
  8 26  1  0
  8 27  1  0
  9 28  1  0
  9 29  1  0
  9 30  1  0
 10 31  1  0
 11 32  1  0
 11 33  1  0
 11 34  1  0
 12 35  1  0
 12 36  1  0
 13 37  1  0
 13 38  1  0
M  END
$$$$
