
     RDKit          3D

 38 36  0  0  0  0  0  0  0  0999 V2000
   -2.4540   -0.4759    0.5477 C   0  0  0  0  0  0  0  0  0  0  0  0
   -1.2543    0.4589    0.4866 C   0  0  0  0  0  0  0  0  0  0  0  0
    0.0652   -0.2498    0.1319 C   0  0  2  0  0  0  0  0  0  0  0  0
    1.2340    0.7445    0.2466 C   0  0  0  0  0  0  0  0  0  0  0  0
    2.4658    0.0491    0.0646 O   0  0  0  0  0  0  0  0  0  0  0  0
    3.5424    0.9864    0.1580 N   0  0  0  0  0  0  0  0  0  0  0  0
    4.6299    0.4236    0.0011 O   0  0  0  0  0  0  0  0  0  0  0  0
    0.0259   -0.8758   -1.2667 C   0  0  0  0  0  0  0  0  0  0  0  0
   -1.0640    1.2950   -0.4796 C   0  0  0  0  0  0  0  0  0  0  0  0
   -0.8008    0.0310    0.3397 C   0  0  0  0  0  0  0  0  0  0  0  0
   -2.1203   -0.7006    0.5997 C   0  0  0  0  0  0  0  0  0  0  0  0
    0.1945   -0.9207   -0.3533 C   0  0  0  0  0  0  0  0  0  0  0  0
    1.5853   -0.3298   -0.5864 C   0  0  0  0  0  0  0  0  0  0  0  0
    2.1402    0.0789    0.6597 O   0  0  0  0  0  0  0  0  0  0  0  0
    3.4357    0.6382    0.4260 N   0  0  0  0  0  0  0  0  0  0  0  0
    3.9494    1.0142    1.4837 O   0  0  0  0  0  0  0  0  0  0  0  0
   -2.7021   -0.8777   -0.4389 H   0  0  0  0  0  0  0  0  0  0  0  0
   -3.3327    0.0662    0.9121 H   0  0  0  0  0  0  0  0  0  0  0  0
   -2.2666   -1.3126    1.2279 H   0  0  0  0  0  0  0  0  0  0  0  0
   -1.1501    0.9403    1.4670 H   0  0  0  0  0  0  0  0  0  0  0  0
   -1.4585    1.2582   -0.2364 H   0  0  0  0  0  0  0  0  0  0  0  0
    0.2392   -1.0630    0.8490 H   0  0  0  0  0  0  0  0  0  0  0  0
    1.1345    1.5329   -0.5111 H   0  0  0  0  0  0  0  0  0  0  0  0
    1.2281    1.2086    1.2413 H   0  0  0  0  0  0  0  0  0  0  0  0
    0.9814   -1.3485   -1.5170 H   0  0  0  0  0  0  0  0  0  0  0  0
   -0.7407   -1.6537   -1.3328 H   0  0  0  0  0  0  0  0  0  0  0  0
   -0.1875   -0.1209   -2.0310 H   0  0  0  0  0  0  0  0  0  0  0  0
   -1.4151    1.0491   -1.4875 H   0  0  0  0  0  0  0  0  0  0  0  0
   -0.1604    1.9051   -0.5716 H   0  0  0  0  0  0  0  0  0  0  0  0
   -1.8266    1.9175    0.0010 H   0  0  0  0  0  0  0  0  0  0  0  0
   -0.3914    0.3320    1.3119 H   0  0  0  0  0  0  0  0  0  0  0  0
   -1.9576   -1.5885    1.2198 H   0  0  0  0  0  0  0  0  0  0  0  0
   -2.8278   -0.0519    1.1273 H   0  0  0  0  0  0  0  0  0  0  0  0
   -2.5886   -1.0216   -0.3370 H   0  0  0  0  0  0  0  0  0  0  0  0
   -0.2148   -1.2549   -1.3145 H   0  0  0  0  0  0  0  0  0  0  0  0
    0.3056   -1.8137    0.2758 H   0  0  0  0  0  0  0  0  0  0  0  0
    1.5317    0.5199   -1.2772 H   0  0  0  0  0  0  0  0  0  0  0  0
    2.2251   -1.0991   -1.0374 H   0  0  0  0  0  0  0  0  0  0  0  0
  1  2  1  0
  2  3  1  0
  3  4  1  0
  4  5  1  0
  5  6  1  0
  6  7  2  0
  3  8  1  0
  9 10  1  0
 10 11  1  0
 10 12  1  0
 12 13  1  0
 13 14  1  0
 14 15  1  0
 15 16  2  0
  1 17  1  0
  1 18  1  0
  1 19  1  0
  2 20  1  0
  2 21  1  0
  3 22  1  1
  4 23  1  0
  4 24  1  0
  8 25  1  0
  8 26  1  0
  8 27  1  0
  9 28  1  0
  9 29  1  0
  9 30  1  0
 10 31  1  0
 11 32  1  0
 11 33  1  0
 11 34  1  0
 12 35  1  0
 12 36  1  0
 13 37  1  0
 13 38  1  0
M  END
$$$$
