
     RDKit          3D

 63 65  0  0  0  0  0  0  0  0999 V2000
    3.6761   -0.2501   -0.1641 C   0  0  0  0  0  0  0  0  0  0  0  0
    3.9949    0.6393    0.9315 C   0  0  0  0  0  0  0  0  0  0  0  0
    3.1476    0.6945    2.0656 C   0  0  0  0  0  0  0  0  0  0  0  0
    2.5236   -1.0876   -0.1024 C   0  0  0  0  0  0  0  0  0  0  0  0
    1.6950   -1.0376    1.0461 C   0  0  0  0  0  0  0  0  0  0  0  0
    5.0917   -1.2359   -3.6235 C   0  0  0  0  0  0  0  0  0  0  0  0
    2.0217   -0.1451    2.0861 C   0  0  0  0  0  0  0  0  0  0  0  0
    4.4764   -0.3337   -1.3371 C   0  0  0  0  0  0  0  0  0  0  0  0
    3.4573    1.5801    3.1374 C   0  0  0  0  0  0  0  0  0  0  0  0
    4.1827   -1.1791   -2.4192 C   0  0  0  0  0  0  0  0  0  0  0  0
    4.5871    2.3946    3.1118 C   0  0  0  0  0  0  0  0  0  0  0  0
    2.2515   -1.9419   -1.2010 C   0  0  0  0  0  0  0  0  0  0  0  0
    5.1354    1.4886    0.9492 C   0  0  0  0  0  0  0  0  0  0  0  0
    5.4229    2.3420    2.0155 C   0  0  0  0  0  0  0  0  0  0  0  0
    0.4369   -1.8829    1.2262 C   0  0  2  0  0  0  0  0  0  0  0  0
   -0.8584   -1.0881    1.0058 C   0  0  0  0  0  0  0  0  0  0  0  0
    3.0614   -1.9909   -2.3346 C   0  0  0  0  0  0  0  0  0  0  0  0
    6.0641   -2.1859   -3.4940 F   0  0  0  0  0  0  0  0  0  0  0  0
    5.7427   -0.0589   -3.8568 F   0  0  0  0  0  0  0  0  0  0  0  0
    4.4305   -1.5301   -4.7766 F   0  0  0  0  0  0  0  0  0  0  0  0
    2.4548    1.7198    4.5514 Cl  0  0  0  0  0  0  0  0  0  0  0  0
   -1.1151   -0.7697   -0.4714 C   0  0  0  0  0  0  0  0  0  0  0  0
   -2.3905   -0.0441   -0.6270 N   0  0  0  0  0  0  0  0  0  0  0  0
    6.8265    3.3365    1.9627 Cl  0  0  0  0  0  0  0  0  0  0  0  0
    0.4222   -2.3884    2.5700 O   0  0  0  0  0  0  0  0  0  0  0  0
   -3.0042   -0.3196   -1.9433 C   0  0  0  0  0  0  0  0  0  0  0  0
   -2.1939    1.4046   -0.4261 C   0  0  0  0  0  0  0  0  0  0  0  0
   -3.7657   -1.6566   -1.9647 C   0  0  0  0  0  0  0  0  0  0  0  0
   -3.4885    2.0840    0.0441 C   0  0  0  0  0  0  0  0  0  0  0  0
   -4.8948   -1.7100   -0.9302 C   0  0  0  0  0  0  0  0  0  0  0  0
   -3.3598    3.6031    0.1946 C   0  0  0  0  0  0  0  0  0  0  0  0
   -5.6390   -3.0365   -0.9765 C   0  0  0  0  0  0  0  0  0  0  0  0
   -2.3483    4.0351    1.2485 C   0  0  0  0  0  0  0  0  0  0  0  0
    1.3623   -0.1338    2.9534 H   0  0  0  0  0  0  0  0  0  0  0  0
    5.3715    0.2775   -1.4376 H   0  0  0  0  0  0  0  0  0  0  0  0
    4.8098    3.0593    3.9415 H   0  0  0  0  0  0  0  0  0  0  0  0
    1.3887   -2.6013   -1.2063 H   0  0  0  0  0  0  0  0  0  0  0  0
    5.8378    1.4971    0.1209 H   0  0  0  0  0  0  0  0  0  0  0  0
    0.4552   -2.7713    0.5911 H   0  0  0  0  0  0  0  0  0  0  0  0
   -1.7016   -1.6729    1.3979 H   0  0  0  0  0  0  0  0  0  0  0  0
   -0.8407   -0.1737    1.6094 H   0  0  0  0  0  0  0  0  0  0  0  0
    2.8083   -2.6688   -3.1476 H   0  0  0  0  0  0  0  0  0  0  0  0
   -1.1493   -1.7288   -1.0028 H   0  0  0  0  0  0  0  0  0  0  0  0
   -0.2908   -0.1994   -0.9163 H   0  0  0  0  0  0  0  0  0  0  0  0
   -0.2031   -3.1254    2.5861 H   0  0  0  0  0  0  0  0  0  0  0  0
   -3.7266    0.4601   -2.2103 H   0  0  0  0  0  0  0  0  0  0  0  0
   -2.2420   -0.3081   -2.7355 H   0  0  0  0  0  0  0  0  0  0  0  0
   -1.8161    1.8767   -1.3398 H   0  0  0  0  0  0  0  0  0  0  0  0
   -1.4374    1.5723    0.3443 H   0  0  0  0  0  0  0  0  0  0  0  0
   -4.1877   -1.7945   -2.9686 H   0  0  0  0  0  0  0  0  0  0  0  0
   -3.0786   -2.4941   -1.8021 H   0  0  0  0  0  0  0  0  0  0  0  0
   -4.3014    1.8931   -0.6652 H   0  0  0  0  0  0  0  0  0  0  0  0
   -3.8040    1.6494    1.0016 H   0  0  0  0  0  0  0  0  0  0  0  0
   -5.6029   -0.8915   -1.1104 H   0  0  0  0  0  0  0  0  0  0  0  0
   -4.4890   -1.5723    0.0794 H   0  0  0  0  0  0  0  0  0  0  0  0
   -3.0956    4.0517   -0.7702 H   0  0  0  0  0  0  0  0  0  0  0  0
   -4.3409    4.0042    0.4718 H   0  0  0  0  0  0  0  0  0  0  0  0
   -6.4120   -3.0578   -0.2002 H   0  0  0  0  0  0  0  0  0  0  0  0
   -4.9576   -3.8778   -0.7998 H   0  0  0  0  0  0  0  0  0  0  0  0
   -6.1264   -3.1831   -1.9479 H   0  0  0  0  0  0  0  0  0  0  0  0
   -1.3229    3.8041    0.9403 H   0  0  0  0  0  0  0  0  0  0  0  0
   -2.5435    3.5441    2.2083 H   0  0  0  0  0  0  0  0  0  0  0  0
   -2.4081    5.1157    1.4033 H   0  0  0  0  0  0  0  0  0  0  0  0
  2  1  2  0
  3  2  1  0
  4  1  1  0
  5  4  2  0
  6 10  1  0
  7  5  1  0
  8  1  1  0
  9  3  1  0
 10  8  2  0
 11 14  1  0
 12  4  1  0
 13  2  1  0
 14 13  2  0
 15  5  1  0
 16 15  1  0
 17 10  1  0
 18  6  1  0
 19  6  1  0
 20  6  1  0
 21  9  1  0
 22 16  1  0
 23 22  1  0
 24 14  1  0
 25 15  1  0
 26 23  1  0
 27 23  1  0
 28 26  1  0
 29 27  1  0
 30 28  1  0
 31 29  1  0
 32 30  1  0
 33 31  1  0
 17 12  2  0
  7  3  2  0
  9 11  2  0
  7 34  1  0
  8 35  1  0
 11 36  1  0
 12 37  1  0
 13 38  1  0
 15 39  1  6
 16 40  1  0
 16 41  1  0
 17 42  1  0
 22 43  1  0
 22 44  1  0
 25 45  1  0
 26 46  1  0
 26 47  1  0
 27 48  1  0
 27 49  1  0
 28 50  1  0
 28 51  1  0
 29 52  1  0
 29 53  1  0
 30 54  1  0
 30 55  1  0
 31 56  1  0
 31 57  1  0
 32 58  1  0
 32 59  1  0
 32 60  1  0
 33 61  1  0
 33 62  1  0
 33 63  1  0
M  END
$$$$
