
     RDKit          3D

 63 65  0  0  0  0  0  0  0  0999 V2000
   -3.6069    0.2153   -0.6460 C   0  0  0  0  0  0  0  0  0  0  0  0
   -3.5803   -0.9145   -1.5459 C   0  0  0  0  0  0  0  0  0  0  0  0
   -2.7823   -2.0451   -1.2384 C   0  0  0  0  0  0  0  0  0  0  0  0
   -2.8389    0.1945    0.5535 C   0  0  0  0  0  0  0  0  0  0  0  0
   -2.0561   -0.9472    0.8588 C   0  0  0  0  0  0  0  0  0  0  0  0
   -5.2307    3.7124   -0.3943 C   0  0  0  0  0  0  0  0  0  0  0  0
   -2.0404   -2.0262   -0.0439 C   0  0  0  0  0  0  0  0  0  0  0  0
   -4.3757    1.3848   -0.9024 C   0  0  0  0  0  0  0  0  0  0  0  0
   -2.7518   -3.1506   -2.1345 C   0  0  0  0  0  0  0  0  0  0  0  0
   -4.4115    2.4952   -0.0424 C   0  0  0  0  0  0  0  0  0  0  0  0
   -3.4906   -3.1583   -3.3147 C   0  0  0  0  0  0  0  0  0  0  0  0
   -2.8803    1.3283    1.4032 C   0  0  0  0  0  0  0  0  0  0  0  0
   -4.3194   -0.9669   -2.7580 C   0  0  0  0  0  0  0  0  0  0  0  0
   -4.2736   -2.0635   -3.6196 C   0  0  0  0  0  0  0  0  0  0  0  0
   -1.1920   -1.0386    2.1162 C   0  0  2  0  0  0  0  0  0  0  0  0
    0.1587   -0.3195    1.9788 C   0  0  0  0  0  0  0  0  0  0  0  0
   -3.6450    2.4575    1.1137 C   0  0  0  0  0  0  0  0  0  0  0  0
   -5.5661    4.4678    0.6883 F   0  0  0  0  0  0  0  0  0  0  0  0
   -4.5749    4.5469   -1.2463 F   0  0  0  0  0  0  0  0  0  0  0  0
   -6.4059    3.3990   -1.0076 F   0  0  0  0  0  0  0  0  0  0  0  0
   -1.7976   -4.5692   -1.8259 Cl  0  0  0  0  0  0  0  0  0  0  0  0
    1.1327   -1.0016    1.0050 C   0  0  0  0  0  0  0  0  0  0  0  0
    2.3606   -0.1878    0.8440 N   0  0  0  0  0  0  0  0  0  0  0  0
   -5.1977   -2.0511   -5.0705 Cl  0  0  0  0  0  0  0  0  0  0  0  0
   -0.9767   -2.3945    2.5130 O   0  0  0  0  0  0  0  0  0  0  0  0
    2.1431    0.8657   -0.1710 C   0  0  0  0  0  0  0  0  0  0  0  0
    3.5044   -1.0446    0.4672 C   0  0  0  0  0  0  0  0  0  0  0  0
    3.0726    2.0644    0.0650 C   0  0  0  0  0  0  0  0  0  0  0  0
    4.1213   -1.7221    1.7000 C   0  0  0  0  0  0  0  0  0  0  0  0
    2.9010    3.1726   -0.9789 C   0  0  0  0  0  0  0  0  0  0  0  0
    5.2684   -2.6762    1.3532 C   0  0  0  0  0  0  0  0  0  0  0  0
    1.5418    3.8519   -0.9315 C   0  0  0  0  0  0  0  0  0  0  0  0
    6.4807   -1.9830    0.7514 C   0  0  0  0  0  0  0  0  0  0  0  0
   -1.4045   -2.8783    0.1990 H   0  0  0  0  0  0  0  0  0  0  0  0
   -4.9797    1.4603   -1.8048 H   0  0  0  0  0  0  0  0  0  0  0  0
   -3.4534   -4.0115   -3.9861 H   0  0  0  0  0  0  0  0  0  0  0  0
   -2.3014    1.3651    2.3234 H   0  0  0  0  0  0  0  0  0  0  0  0
   -4.9553   -0.1398   -3.0600 H   0  0  0  0  0  0  0  0  0  0  0  0
   -1.7413   -0.5957    2.9542 H   0  0  0  0  0  0  0  0  0  0  0  0
    0.6385   -0.3031    2.9670 H   0  0  0  0  0  0  0  0  0  0  0  0
   -0.0085    0.7253    1.6964 H   0  0  0  0  0  0  0  0  0  0  0  0
   -3.6339    3.3030    1.8002 H   0  0  0  0  0  0  0  0  0  0  0  0
    0.6732   -1.1832    0.0265 H   0  0  0  0  0  0  0  0  0  0  0  0
    1.3711   -1.9881    1.4182 H   0  0  0  0  0  0  0  0  0  0  0  0
   -1.8553   -2.8030    2.6057 H   0  0  0  0  0  0  0  0  0  0  0  0
    2.2724    0.4656   -1.1855 H   0  0  0  0  0  0  0  0  0  0  0  0
    1.1122    1.2320   -0.1171 H   0  0  0  0  0  0  0  0  0  0  0  0
    3.2054   -1.7905   -0.2807 H   0  0  0  0  0  0  0  0  0  0  0  0
    4.2879   -0.4383    0.0011 H   0  0  0  0  0  0  0  0  0  0  0  0
    2.8967    2.4773    1.0657 H   0  0  0  0  0  0  0  0  0  0  0  0
    4.1199    1.7433    0.0397 H   0  0  0  0  0  0  0  0  0  0  0  0
    3.3629   -2.3000    2.2400 H   0  0  0  0  0  0  0  0  0  0  0  0
    4.4838   -0.9558    2.3969 H   0  0  0  0  0  0  0  0  0  0  0  0
    3.0732    2.7692   -1.9832 H   0  0  0  0  0  0  0  0  0  0  0  0
    3.6734    3.9313   -0.8067 H   0  0  0  0  0  0  0  0  0  0  0  0
    5.5820   -3.1872    2.2716 H   0  0  0  0  0  0  0  0  0  0  0  0
    4.9135   -3.4520    0.6649 H   0  0  0  0  0  0  0  0  0  0  0  0
    0.7406    3.1713   -1.2337 H   0  0  0  0  0  0  0  0  0  0  0  0
    1.3213    4.2217    0.0743 H   0  0  0  0  0  0  0  0  0  0  0  0
    1.5261    4.7054   -1.6175 H   0  0  0  0  0  0  0  0  0  0  0  0
    7.3029   -2.6972    0.6388 H   0  0  0  0  0  0  0  0  0  0  0  0
    6.8260   -1.1658    1.3924 H   0  0  0  0  0  0  0  0  0  0  0  0
    6.2595   -1.5769   -0.2399 H   0  0  0  0  0  0  0  0  0  0  0  0
  2  1  2  0
  3  2  1  0
  4  1  1  0
  5  4  2  0
  6 10  1  0
  7  5  1  0
  8  1  1  0
  9  3  1  0
 10  8  2  0
 11 14  1  0
 12  4  1  0
 13  2  1  0
 14 13  2  0
 15  5  1  0
 16 15  1  0
 17 10  1  0
 18  6  1  0
 19  6  1  0
 20  6  1  0
 21  9  1  0
 22 16  1  0
 23 22  1  0
 24 14  1  0
 25 15  1  0
 26 23  1  0
 27 23  1  0
 28 26  1  0
 29 27  1  0
 30 28  1  0
 31 29  1  0
 32 30  1  0
 33 31  1  0
 17 12  2  0
  7  3  2  0
  9 11  2  0
  7 34  1  0
  8 35  1  0
 11 36  1  0
 12 37  1  0
 13 38  1  0
 15 39  1  1
 16 40  1  0
 16 41  1  0
 17 42  1  0
 22 43  1  0
 22 44  1  0
 25 45  1  0
 26 46  1  0
 26 47  1  0
 27 48  1  0
 27 49  1  0
 28 50  1  0
 28 51  1  0
 29 52  1  0
 29 53  1  0
 30 54  1  0
 30 55  1  0
 31 56  1  0
 31 57  1  0
 32 58  1  0
 32 59  1  0
 32 60  1  0
 33 61  1  0
 33 62  1  0
 33 63  1  0
M  END
$$$$
