
     RDKit          3D

 63 65  0  0  0  0  0  0  0  0999 V2000
    3.6946   -0.1600    0.4064 C   0  0  0  0  0  0  0  0  0  0  0  0
    4.4952    0.8075    1.1218 C   0  0  0  0  0  0  0  0  0  0  0  0
    4.0626    2.1523    1.2132 C   0  0  0  0  0  0  0  0  0  0  0  0
    2.4711    0.2311   -0.2172 C   0  0  0  0  0  0  0  0  0  0  0  0
    2.0442    1.5817   -0.1200 C   0  0  0  0  0  0  0  0  0  0  0  0
    3.8032   -3.9209   -0.4794 C   0  0  0  0  0  0  0  0  0  0  0  0
    2.8496    2.4968    0.5921 C   0  0  0  0  0  0  0  0  0  0  0  0
    4.0792   -1.5267    0.2934 C   0  0  0  0  0  0  0  0  0  0  0  0
    4.8518    3.1026    1.9219 C   0  0  0  0  0  0  0  0  0  0  0  0
    3.3237   -2.4951   -0.3862 C   0  0  0  0  0  0  0  0  0  0  0  0
    6.0517    2.7496    2.5332 C   0  0  0  0  0  0  0  0  0  0  0  0
    1.7374   -0.7640   -0.9084 C   0  0  0  0  0  0  0  0  0  0  0  0
    5.7250    0.4918    1.7615 C   0  0  0  0  0  0  0  0  0  0  0  0
    6.4825    1.4413    2.4490 C   0  0  0  0  0  0  0  0  0  0  0  0
    0.7454    2.1741   -0.6798 C   0  0  2  0  0  0  0  0  0  0  0  0
   -0.3957    2.2487    0.3566 C   0  0  0  0  0  0  0  0  0  0  0  0
    2.1474   -2.0942   -0.9973 C   0  0  0  0  0  0  0  0  0  0  0  0
    4.7057   -4.1016   -1.4819 F   0  0  0  0  0  0  0  0  0  0  0  0
    2.7997   -4.8129   -0.7116 F   0  0  0  0  0  0  0  0  0  0  0  0
    4.4196   -4.3462    0.6592 F   0  0  0  0  0  0  0  0  0  0  0  0
    4.3784    4.7660    2.0817 Cl  0  0  0  0  0  0  0  0  0  0  0  0
   -1.0935    0.9183    0.6713 C   0  0  0  0  0  0  0  0  0  0  0  0
   -1.7599    0.2994   -0.4955 N   0  0  0  0  0  0  0  0  0  0  0  0
    7.9604    0.9778    3.1985 Cl  0  0  0  0  0  0  0  0  0  0  0  0
    0.3340    1.6197   -1.9219 O   0  0  0  0  0  0  0  0  0  0  0  0
   -2.9643    1.0327   -0.9451 C   0  0  0  0  0  0  0  0  0  0  0  0
   -2.0150   -1.1311   -0.2165 C   0  0  0  0  0  0  0  0  0  0  0  0
   -4.1760    1.0362   -0.0009 C   0  0  0  0  0  0  0  0  0  0  0  0
   -2.5126   -1.9114   -1.4414 C   0  0  0  0  0  0  0  0  0  0  0  0
   -5.3302    1.8455   -0.5991 C   0  0  0  0  0  0  0  0  0  0  0  0
   -2.5169   -3.4282   -1.2264 C   0  0  0  0  0  0  0  0  0  0  0  0
   -6.5435    1.8454    0.3169 C   0  0  0  0  0  0  0  0  0  0  0  0
   -3.4686   -3.8832   -0.1309 C   0  0  0  0  0  0  0  0  0  0  0  0
    2.4994    3.5282    0.6553 H   0  0  0  0  0  0  0  0  0  0  0  0
    5.0034   -1.8785    0.7474 H   0  0  0  0  0  0  0  0  0  0  0  0
    6.6403    3.4895    3.0686 H   0  0  0  0  0  0  0  0  0  0  0  0
    0.8091   -0.5262   -1.4146 H   0  0  0  0  0  0  0  0  0  0  0  0
    6.1244   -0.5180    1.7352 H   0  0  0  0  0  0  0  0  0  0  0  0
    0.9794    3.2147   -0.9425 H   0  0  0  0  0  0  0  0  0  0  0  0
   -1.1423    2.9666   -0.0022 H   0  0  0  0  0  0  0  0  0  0  0  0
   -0.0119    2.6655    1.2967 H   0  0  0  0  0  0  0  0  0  0  0  0
    1.5358   -2.8042   -1.5512 H   0  0  0  0  0  0  0  0  0  0  0  0
   -1.8023    1.0642    1.4948 H   0  0  0  0  0  0  0  0  0  0  0  0
   -0.3262    0.2396    1.0644 H   0  0  0  0  0  0  0  0  0  0  0  0
   -0.4938    1.1264   -1.7462 H   0  0  0  0  0  0  0  0  0  0  0  0
   -3.2725    0.6278   -1.9170 H   0  0  0  0  0  0  0  0  0  0  0  0
   -2.6910    2.0692   -1.1747 H   0  0  0  0  0  0  0  0  0  0  0  0
   -1.0742   -1.5982    0.1006 H   0  0  0  0  0  0  0  0  0  0  0  0
   -2.7116   -1.2440    0.6218 H   0  0  0  0  0  0  0  0  0  0  0  0
   -3.9058    1.4685    0.9688 H   0  0  0  0  0  0  0  0  0  0  0  0
   -4.5215    0.0119    0.1803 H   0  0  0  0  0  0  0  0  0  0  0  0
   -3.5253   -1.5933   -1.7142 H   0  0  0  0  0  0  0  0  0  0  0  0
   -1.8636   -1.6911   -2.2986 H   0  0  0  0  0  0  0  0  0  0  0  0
   -5.6146    1.4267   -1.5716 H   0  0  0  0  0  0  0  0  0  0  0  0
   -5.0101    2.8796   -0.7709 H   0  0  0  0  0  0  0  0  0  0  0  0
   -2.8104   -3.9103   -2.1667 H   0  0  0  0  0  0  0  0  0  0  0  0
   -1.5029   -3.7755   -0.9962 H   0  0  0  0  0  0  0  0  0  0  0  0
   -6.9118    0.8278    0.4787 H   0  0  0  0  0  0  0  0  0  0  0  0
   -7.3532    2.4328   -0.1262 H   0  0  0  0  0  0  0  0  0  0  0  0
   -6.3005    2.2820    1.2904 H   0  0  0  0  0  0  0  0  0  0  0  0
   -3.1388   -3.5396    0.8533 H   0  0  0  0  0  0  0  0  0  0  0  0
   -3.5119   -4.9766   -0.1018 H   0  0  0  0  0  0  0  0  0  0  0  0
   -4.4815   -3.5087   -0.3078 H   0  0  0  0  0  0  0  0  0  0  0  0
  2  1  2  0
  3  2  1  0
  4  1  1  0
  5  4  2  0
  6 10  1  0
  7  5  1  0
  8  1  1  0
  9  3  1  0
 10  8  2  0
 11 14  1  0
 12  4  1  0
 13  2  1  0
 14 13  2  0
 15  5  1  0
 16 15  1  0
 17 10  1  0
 18  6  1  0
 19  6  1  0
 20  6  1  0
 21  9  1  0
 22 16  1  0
 23 22  1  0
 24 14  1  0
 25 15  1  0
 26 23  1  0
 27 23  1  0
 28 26  1  0
 29 27  1  0
 30 28  1  0
 31 29  1  0
 32 30  1  0
 33 31  1  0
 17 12  2  0
  7  3  2  0
  9 11  2  0
  7 34  1  0
  8 35  1  0
 11 36  1  0
 12 37  1  0
 13 38  1  0
 15 39  1  6
 16 40  1  0
 16 41  1  0
 17 42  1  0
 22 43  1  0
 22 44  1  0
 25 45  1  0
 26 46  1  0
 26 47  1  0
 27 48  1  0
 27 49  1  0
 28 50  1  0
 28 51  1  0
 29 52  1  0
 29 53  1  0
 30 54  1  0
 30 55  1  0
 31 56  1  0
 31 57  1  0
 32 58  1  0
 32 59  1  0
 32 60  1  0
 33 61  1  0
 33 62  1  0
 33 63  1  0
M  END
$$$$
