
     RDKit          3D

 63 65  0  0  0  0  0  0  0  0999 V2000
   -3.6685    0.7215   -0.0209 C   0  0  0  0  0  0  0  0  0  0  0  0
   -4.1423   -0.0603   -1.1409 C   0  0  0  0  0  0  0  0  0  0  0  0
   -3.6924   -1.3931   -1.3141 C   0  0  0  0  0  0  0  0  0  0  0  0
   -2.7540    0.1573    0.9158 C   0  0  0  0  0  0  0  0  0  0  0  0
   -2.3166   -1.1793    0.7352 C   0  0  0  0  0  0  0  0  0  0  0  0
   -4.1079    4.2674    1.4517 C   0  0  0  0  0  0  0  0  0  0  0  0
   -2.7902   -1.9117   -0.3701 C   0  0  0  0  0  0  0  0  0  0  0  0
   -4.0757    2.0669    0.1998 C   0  0  0  0  0  0  0  0  0  0  0  0
   -4.1572   -2.1574   -2.4214 C   0  0  0  0  0  0  0  0  0  0  0  0
   -3.6175    2.8523    1.2702 C   0  0  0  0  0  0  0  0  0  0  0  0
   -5.0523   -1.6322   -3.3498 C   0  0  0  0  0  0  0  0  0  0  0  0
   -2.3110    0.9639    1.9947 C   0  0  0  0  0  0  0  0  0  0  0  0
   -5.0548    0.4337   -2.1118 C   0  0  0  0  0  0  0  0  0  0  0  0
   -5.4975   -0.3358   -3.1885 C   0  0  0  0  0  0  0  0  0  0  0  0
   -1.3158   -1.8739    1.6520 C   0  0  2  0  0  0  0  0  0  0  0  0
    0.0960   -1.9823    1.0496 C   0  0  0  0  0  0  0  0  0  0  0  0
   -2.7328    2.2811    2.1731 C   0  0  0  0  0  0  0  0  0  0  0  0
   -5.2833    4.3240    2.1357 F   0  0  0  0  0  0  0  0  0  0  0  0
   -4.3304    4.9078    0.2701 F   0  0  0  0  0  0  0  0  0  0  0  0
   -3.2339    5.0534    2.1405 F   0  0  0  0  0  0  0  0  0  0  0  0
   -3.6441   -3.7929   -2.7025 Cl  0  0  0  0  0  0  0  0  0  0  0  0
    0.7412   -0.6166    0.7811 C   0  0  0  0  0  0  0  0  0  0  0  0
    2.1199   -0.7547    0.2770 N   0  0  0  0  0  0  0  0  0  0  0  0
   -6.6037    0.3365   -4.3227 Cl  0  0  0  0  0  0  0  0  0  0  0  0
   -1.8036   -3.1949    1.9243 O   0  0  0  0  0  0  0  0  0  0  0  0
    3.0811   -0.9892    1.3684 C   0  0  0  0  0  0  0  0  0  0  0  0
    2.4855    0.3675   -0.6092 C   0  0  0  0  0  0  0  0  0  0  0  0
    4.5106   -1.3285    0.9168 C   0  0  0  0  0  0  0  0  0  0  0  0
    2.5815    1.7500    0.0554 C   0  0  0  0  0  0  0  0  0  0  0  0
    4.5788   -2.5806    0.0395 C   0  0  0  0  0  0  0  0  0  0  0  0
    2.8216    2.8808   -0.9499 C   0  0  0  0  0  0  0  0  0  0  0  0
    6.0139   -2.9170   -0.3350 C   0  0  0  0  0  0  0  0  0  0  0  0
    4.1745    2.8024   -1.6409 C   0  0  0  0  0  0  0  0  0  0  0  0
   -2.4316   -2.9364   -0.4771 H   0  0  0  0  0  0  0  0  0  0  0  0
   -4.7768    2.5481   -0.4794 H   0  0  0  0  0  0  0  0  0  0  0  0
   -5.3956   -2.2314   -4.1883 H   0  0  0  0  0  0  0  0  0  0  0  0
   -1.6161    0.5848    2.7385 H   0  0  0  0  0  0  0  0  0  0  0  0
   -5.4452    1.4450   -2.0467 H   0  0  0  0  0  0  0  0  0  0  0  0
   -1.2612   -1.3933    2.6303 H   0  0  0  0  0  0  0  0  0  0  0  0
    0.0654   -2.5669    0.1203 H   0  0  0  0  0  0  0  0  0  0  0  0
    0.7118   -2.5719    1.7393 H   0  0  0  0  0  0  0  0  0  0  0  0
   -2.3627    2.8523    3.0233 H   0  0  0  0  0  0  0  0  0  0  0  0
    0.1293   -0.1080    0.0265 H   0  0  0  0  0  0  0  0  0  0  0  0
    0.7162    0.0069    1.6834 H   0  0  0  0  0  0  0  0  0  0  0  0
   -1.1326   -3.6532    2.4577 H   0  0  0  0  0  0  0  0  0  0  0  0
    3.1189   -0.1265    2.0450 H   0  0  0  0  0  0  0  0  0  0  0  0
    2.7401   -1.8321    1.9811 H   0  0  0  0  0  0  0  0  0  0  0  0
    3.4307    0.1287   -1.1078 H   0  0  0  0  0  0  0  0  0  0  0  0
    1.7546    0.4139   -1.4278 H   0  0  0  0  0  0  0  0  0  0  0  0
    4.9631   -0.4770    0.3956 H   0  0  0  0  0  0  0  0  0  0  0  0
    5.1197   -1.4903    1.8155 H   0  0  0  0  0  0  0  0  0  0  0  0
    1.6495    1.9717    0.5884 H   0  0  0  0  0  0  0  0  0  0  0  0
    3.3856    1.7613    0.7999 H   0  0  0  0  0  0  0  0  0  0  0  0
    3.9995   -2.4370   -0.8790 H   0  0  0  0  0  0  0  0  0  0  0  0
    4.1378   -3.4310    0.5724 H   0  0  0  0  0  0  0  0  0  0  0  0
    2.0258    2.8862   -1.7035 H   0  0  0  0  0  0  0  0  0  0  0  0
    2.7592    3.8369   -0.4167 H   0  0  0  0  0  0  0  0  0  0  0  0
    6.6207   -3.0983    0.5576 H   0  0  0  0  0  0  0  0  0  0  0  0
    6.4722   -2.1010   -0.9026 H   0  0  0  0  0  0  0  0  0  0  0  0
    6.0425   -3.8190   -0.9541 H   0  0  0  0  0  0  0  0  0  0  0  0
    4.3266    3.6865   -2.2684 H   0  0  0  0  0  0  0  0  0  0  0  0
    4.2455    1.9229   -2.2872 H   0  0  0  0  0  0  0  0  0  0  0  0
    4.9877    2.7623   -0.9095 H   0  0  0  0  0  0  0  0  0  0  0  0
  2  1  2  0
  3  2  1  0
  4  1  1  0
  5  4  2  0
  6 10  1  0
  7  5  1  0
  8  1  1  0
  9  3  1  0
 10  8  2  0
 11 14  1  0
 12  4  1  0
 13  2  1  0
 14 13  2  0
 15  5  1  0
 16 15  1  0
 17 10  1  0
 18  6  1  0
 19  6  1  0
 20  6  1  0
 21  9  1  0
 22 16  1  0
 23 22  1  0
 24 14  1  0
 25 15  1  0
 26 23  1  0
 27 23  1  0
 28 26  1  0
 29 27  1  0
 30 28  1  0
 31 29  1  0
 32 30  1  0
 33 31  1  0
 17 12  2  0
  7  3  2  0
  9 11  2  0
  7 34  1  0
  8 35  1  0
 11 36  1  0
 12 37  1  0
 13 38  1  0
 15 39  1  1
 16 40  1  0
 16 41  1  0
 17 42  1  0
 22 43  1  0
 22 44  1  0
 25 45  1  0
 26 46  1  0
 26 47  1  0
 27 48  1  0
 27 49  1  0
 28 50  1  0
 28 51  1  0
 29 52  1  0
 29 53  1  0
 30 54  1  0
 30 55  1  0
 31 56  1  0
 31 57  1  0
 32 58  1  0
 32 59  1  0
 32 60  1  0
 33 61  1  0
 33 62  1  0
 33 63  1  0
M  END
$$$$
