
     RDKit          3D

 63 65  0  0  0  0  0  0  0  0999 V2000
    3.9628    0.2295    0.0894 C   0  0  0  0  0  0  0  0  0  0  0  0
    3.9992   -1.1327   -0.3916 C   0  0  0  0  0  0  0  0  0  0  0  0
    3.0104   -1.5887   -1.2992 C   0  0  0  0  0  0  0  0  0  0  0  0
    2.9372    1.1172   -0.3464 C   0  0  0  0  0  0  0  0  0  0  0  0
    1.9580    0.6535   -1.2601 C   0  0  0  0  0  0  0  0  0  0  0  0
    5.9620    2.5525    2.4426 C   0  0  0  0  0  0  0  0  0  0  0  0
    2.0193   -0.6791   -1.7082 C   0  0  0  0  0  0  0  0  0  0  0  0
    4.9228    0.7482    1.0026 C   0  0  0  0  0  0  0  0  0  0  0  0
    3.0462   -2.9338   -1.7633 C   0  0  0  0  0  0  0  0  0  0  0  0
    4.8977    2.0651    1.4913 C   0  0  0  0  0  0  0  0  0  0  0  0
    4.0355   -3.8243   -1.3541 C   0  0  0  0  0  0  0  0  0  0  0  0
    2.9340    2.4444    0.1509 C   0  0  0  0  0  0  0  0  0  0  0  0
    4.9888   -2.0747   -0.0014 C   0  0  0  0  0  0  0  0  0  0  0  0
    5.0046   -3.3874   -0.4738 C   0  0  0  0  0  0  0  0  0  0  0  0
    0.8166    1.5358   -1.7609 C   0  0  2  0  0  0  0  0  0  0  0  0
   -0.3507    1.6717   -0.7679 C   0  0  0  0  0  0  0  0  0  0  0  0
    3.8923    2.9130    1.0485 C   0  0  0  0  0  0  0  0  0  0  0  0
    7.0737    2.9923    1.7918 F   0  0  0  0  0  0  0  0  0  0  0  0
    6.3896    1.5859    3.3022 F   0  0  0  0  0  0  0  0  0  0  0  0
    5.5503    3.5893    3.2244 F   0  0  0  0  0  0  0  0  0  0  0  0
    1.8626   -3.5685   -2.8648 Cl  0  0  0  0  0  0  0  0  0  0  0  0
   -1.0462    0.3371   -0.4520 C   0  0  0  0  0  0  0  0  0  0  0  0
   -2.1957    0.5257    0.4596 N   0  0  0  0  0  0  0  0  0  0  0  0
    6.2384   -4.4690    0.0458 Cl  0  0  0  0  0  0  0  0  0  0  0  0
    0.3131    1.0601   -3.0135 O   0  0  0  0  0  0  0  0  0  0  0  0
   -3.3966    0.9650   -0.2776 C   0  0  0  0  0  0  0  0  0  0  0  0
   -2.4093   -0.6711    1.2961 C   0  0  0  0  0  0  0  0  0  0  0  0
   -4.5815    1.3309    0.6295 C   0  0  0  0  0  0  0  0  0  0  0  0
   -2.8494   -1.9455    0.5600 C   0  0  0  0  0  0  0  0  0  0  0  0
   -5.8006    1.8405   -0.1473 C   0  0  0  0  0  0  0  0  0  0  0  0
   -2.9809   -3.1212    1.5313 C   0  0  0  0  0  0  0  0  0  0  0  0
   -5.5779    3.1844   -0.8243 C   0  0  0  0  0  0  0  0  0  0  0  0
   -3.4169   -4.3891    0.8141 C   0  0  0  0  0  0  0  0  0  0  0  0
    1.2501   -1.0101   -2.4066 H   0  0  0  0  0  0  0  0  0  0  0  0
    5.7332    0.1188    1.3652 H   0  0  0  0  0  0  0  0  0  0  0  0
    4.0461   -4.8470   -1.7204 H   0  0  0  0  0  0  0  0  0  0  0  0
    2.1717    3.1577   -0.1533 H   0  0  0  0  0  0  0  0  0  0  0  0
    5.7792   -1.7989    0.6905 H   0  0  0  0  0  0  0  0  0  0  0  0
    1.2210    2.5289   -1.9859 H   0  0  0  0  0  0  0  0  0  0  0  0
   -0.0024    2.1224    0.1691 H   0  0  0  0  0  0  0  0  0  0  0  0
   -1.0756    2.3674   -1.2057 H   0  0  0  0  0  0  0  0  0  0  0  0
    3.8423    3.9436    1.3968 H   0  0  0  0  0  0  0  0  0  0  0  0
   -0.3047   -0.3080    0.0343 H   0  0  0  0  0  0  0  0  0  0  0  0
   -1.3558   -0.1749   -1.3714 H   0  0  0  0  0  0  0  0  0  0  0  0
   -0.2846    1.7436   -3.3612 H   0  0  0  0  0  0  0  0  0  0  0  0
   -3.1401    1.8577   -0.8556 H   0  0  0  0  0  0  0  0  0  0  0  0
   -3.7101    0.2081   -1.0067 H   0  0  0  0  0  0  0  0  0  0  0  0
   -1.4803   -0.8782    1.8447 H   0  0  0  0  0  0  0  0  0  0  0  0
   -3.1330   -0.4373    2.0857 H   0  0  0  0  0  0  0  0  0  0  0  0
   -4.2712    2.0856    1.3626 H   0  0  0  0  0  0  0  0  0  0  0  0
   -4.9073    0.4496    1.1931 H   0  0  0  0  0  0  0  0  0  0  0  0
   -3.8149   -1.7857    0.0669 H   0  0  0  0  0  0  0  0  0  0  0  0
   -2.1229   -2.2046   -0.2191 H   0  0  0  0  0  0  0  0  0  0  0  0
   -6.6379    1.9423    0.5539 H   0  0  0  0  0  0  0  0  0  0  0  0
   -6.1035    1.0989   -0.8959 H   0  0  0  0  0  0  0  0  0  0  0  0
   -2.0217   -3.3025    2.0301 H   0  0  0  0  0  0  0  0  0  0  0  0
   -3.7127   -2.8794    2.3111 H   0  0  0  0  0  0  0  0  0  0  0  0
   -6.5150    3.5427   -1.2629 H   0  0  0  0  0  0  0  0  0  0  0  0
   -4.8437    3.1124   -1.6320 H   0  0  0  0  0  0  0  0  0  0  0  0
   -5.2319    3.9345   -0.1056 H   0  0  0  0  0  0  0  0  0  0  0  0
   -3.5123   -5.2142    1.5271 H   0  0  0  0  0  0  0  0  0  0  0  0
   -4.3859   -4.2499    0.3242 H   0  0  0  0  0  0  0  0  0  0  0  0
   -2.6855   -4.6804    0.0533 H   0  0  0  0  0  0  0  0  0  0  0  0
  2  1  2  0
  3  2  1  0
  4  1  1  0
  5  4  2  0
  6 10  1  0
  7  5  1  0
  8  1  1  0
  9  3  1  0
 10  8  2  0
 11 14  1  0
 12  4  1  0
 13  2  1  0
 14 13  2  0
 15  5  1  0
 16 15  1  0
 17 10  1  0
 18  6  1  0
 19  6  1  0
 20  6  1  0
 21  9  1  0
 22 16  1  0
 23 22  1  0
 24 14  1  0
 25 15  1  0
 26 23  1  0
 27 23  1  0
 28 26  1  0
 29 27  1  0
 30 28  1  0
 31 29  1  0
 32 30  1  0
 33 31  1  0
 17 12  2  0
  7  3  2  0
  9 11  2  0
  7 34  1  0
  8 35  1  0
 11 36  1  0
 12 37  1  0
 13 38  1  0
 15 39  1  6
 16 40  1  0
 16 41  1  0
 17 42  1  0
 22 43  1  0
 22 44  1  0
 25 45  1  0
 26 46  1  0
 26 47  1  0
 27 48  1  0
 27 49  1  0
 28 50  1  0
 28 51  1  0
 29 52  1  0
 29 53  1  0
 30 54  1  0
 30 55  1  0
 31 56  1  0
 31 57  1  0
 32 58  1  0
 32 59  1  0
 32 60  1  0
 33 61  1  0
 33 62  1  0
 33 63  1  0
M  END
$$$$
