
     RDKit          3D

135142  0  0  0  0  0  0  0  0999 V2000
   -0.7106    0.4085   -0.4307 N   0  0  0  0  0  0  0  0  0  0  0  0
   -1.6063    1.5027   -0.5482 C   0  0  0  0  0  0  0  0  0  0  0  0
   -1.1358   -0.9399   -0.4160 C   0  0  0  0  0  0  0  0  0  0  0  0
   -2.8012    1.5991    0.2032 C   0  0  0  0  0  0  0  0  0  0  0  0
   -1.9198   -1.4087    0.6509 C   0  0  0  0  0  0  0  0  0  0  0  0
   -3.2812    0.5954    1.2353 C   0  0  0  0  0  0  0  0  0  0  0  0
   -2.2980   -0.4516    1.7475 C   0  0  0  0  0  0  0  0  0  0  0  0
    0.7170    0.6446   -0.7368 C   0  0  0  0  0  0  0  0  0  0  0  0
    1.6504   -0.1004    0.2327 C   0  0  0  0  0  0  0  0  0  0  0  0
    4.0559   -0.2952    0.9388 N   0  0  0  0  0  0  0  0  0  0  0  0
   -0.7966   -1.8391   -1.4395 C   0  0  0  0  0  0  0  0  0  0  0  0
   -1.3438    2.5360   -1.4784 C   0  0  0  0  0  0  0  0  0  0  0  0
    3.1158    0.2548   -0.0530 C   0  0  0  0  0  0  0  0  0  0  0  0
   -2.3386   -2.7473    0.6905 C   0  0  0  0  0  0  0  0  0  0  0  0
   -3.6625    2.7052    0.0037 C   0  0  0  0  0  0  0  0  0  0  0  0
    5.3953    0.2593    0.7244 C   0  0  0  0  0  0  0  0  0  0  0  0
    4.1153   -1.7577    0.8984 C   0  0  0  0  0  0  0  0  0  0  0  0
   -2.2010    3.6253   -1.6546 C   0  0  0  0  0  0  0  0  0  0  0  0
   -1.2174   -3.1708   -1.3988 C   0  0  0  0  0  0  0  0  0  0  0  0
   -3.3640    3.7109   -0.9095 C   0  0  0  0  0  0  0  0  0  0  0  0
   -1.9862   -3.6250   -0.3321 C   0  0  0  0  0  0  0  0  0  0  0  0
    3.0874    1.4659   -1.2505 C   0  0  0  0  0  0  0  0  0  0  0  0
   -2.6613    1.0259    0.8245 C   0  0  0  0  0  0  0  0  0  0  0  0
   -1.1760   -0.5267   -0.3628 C   0  0  0  0  0  0  0  0  0  0  0  0
    1.4607   -0.2246   -0.5528 C   0  0  0  0  0  0  0  0  0  0  0  0
    1.9257    0.7207   -1.4918 C   0  0  0  0  0  0  0  0  0  0  0  0
   -1.3751    0.6436    0.4021 C   0  0  0  0  0  0  0  0  0  0  0  0
    0.1922   -1.0048   -0.8609 C   0  0  0  0  0  0  0  0  0  0  0  0
    3.8017    1.2608   -0.0665 C   0  0  0  0  0  0  0  0  0  0  0  0
   -3.7656    0.2432    0.4823 C   0  0  0  0  0  0  0  0  0  0  0  0
    3.5451    2.4602   -2.2478 C   0  0  0  0  0  0  0  0  0  0  0  0
   -2.8432    2.2580    1.6306 C   0  0  0  0  0  0  0  0  0  0  0  0
   -2.3243   -1.3238   -0.7098 C   0  0  0  0  0  0  0  0  0  0  0  0
    2.1837   -0.4187    0.6657 C   0  0  0  0  0  0  0  0  0  0  0  0
    3.3664    0.3328    0.8894 C   0  0  0  0  0  0  0  0  0  0  0  0
   -3.6137   -0.9192   -0.2771 C   0  0  0  0  0  0  0  0  0  0  0  0
    2.9666    2.7039   -3.2943 O   0  0  0  0  0  0  0  0  0  0  0  0
   -1.9361    2.9946    1.9820 O   0  0  0  0  0  0  0  0  0  0  0  0
    1.1969    0.8755   -2.6486 O   0  0  0  0  0  0  0  0  0  0  0  0
   -0.2887    1.4133    0.7295 O   0  0  0  0  0  0  0  0  0  0  0  0
    4.6800    3.0948   -1.9092 O   0  0  0  0  0  0  0  0  0  0  0  0
   -4.1203    2.5153    1.9606 O   0  0  0  0  0  0  0  0  0  0  0  0
    1.7864   -1.3137    1.6883 C   0  0  0  0  0  0  0  0  0  0  0  0
   -2.2627   -2.5144   -1.4781 C   0  0  0  0  0  0  0  0  0  0  0  0
    4.1027    0.1596    2.0736 C   0  0  0  0  0  0  0  0  0  0  0  0
   -4.7514   -1.6758   -0.6071 C   0  0  0  0  0  0  0  0  0  0  0  0
   -3.4014   -3.2588   -1.8004 C   0  0  0  0  0  0  0  0  0  0  0  0
    2.5274   -1.4737    2.8623 C   0  0  0  0  0  0  0  0  0  0  0  0
   -4.6477   -2.8384   -1.3645 C   0  0  0  0  0  0  0  0  0  0  0  0
    3.6883   -0.7391    3.0532 C   0  0  0  0  0  0  0  0  0  0  0  0
   -0.4247   -0.0775    0.8007 N   0  0  0  0  0  0  0  0  0  0  0  0
   -1.2332    1.0416    1.1293 C   0  0  0  0  0  0  0  0  0  0  0  0
   -0.9156   -1.2847    0.2366 C   0  0  0  0  0  0  0  0  0  0  0  0
   -2.3034    1.4926    0.3198 C   0  0  0  0  0  0  0  0  0  0  0  0
   -1.5430   -1.2835   -1.0188 C   0  0  0  0  0  0  0  0  0  0  0  0
   -2.7256    0.8961   -1.0091 C   0  0  0  0  0  0  0  0  0  0  0  0
   -1.7276    0.0161   -1.7476 C   0  0  0  0  0  0  0  0  0  0  0  0
    0.9364   -0.2049    1.3813 C   0  0  0  0  0  0  0  0  0  0  0  0
    1.8801    0.9234    0.9346 C   0  0  0  0  0  0  0  0  0  0  0  0
    3.1079   -0.3926   -0.8233 N   0  0  0  0  0  0  0  0  0  0  0  0
   -0.7928   -2.5129    0.9117 C   0  0  0  0  0  0  0  0  0  0  0  0
   -1.0114    1.7500    2.3356 C   0  0  0  0  0  0  0  0  0  0  0  0
    2.3068    0.8105   -0.5351 C   0  0  0  0  0  0  0  0  0  0  0  0
   -2.0053   -2.4840   -1.5847 C   0  0  0  0  0  0  0  0  0  0  0  0
   -3.0922    2.5920    0.7443 C   0  0  0  0  0  0  0  0  0  0  0  0
    3.0989   -0.6690   -2.2624 C   0  0  0  0  0  0  0  0  0  0  0  0
    4.4880   -0.2562   -0.3538 C   0  0  0  0  0  0  0  0  0  0  0  0
   -1.7894    2.8425    2.7313 C   0  0  0  0  0  0  0  0  0  0  0  0
   -1.2563   -3.7044    0.3484 C   0  0  0  0  0  0  0  0  0  0  0  0
   -2.8360    3.2643    1.9332 C   0  0  0  0  0  0  0  0  0  0  0  0
   -1.8587   -3.6899   -0.9038 C   0  0  0  0  0  0  0  0  0  0  0  0
   -3.6234    1.1613    2.1133 H   0  0  0  0  0  0  0  0  0  0  0  0
   -4.1638    0.0897    0.8189 H   0  0  0  0  0  0  0  0  0  0  0  0
   -2.7657   -1.0023    2.5734 H   0  0  0  0  0  0  0  0  0  0  0  0
   -1.3982    0.0150    2.1672 H   0  0  0  0  0  0  0  0  0  0  0  0
    0.9560    1.7096   -0.6200 H   0  0  0  0  0  0  0  0  0  0  0  0
    0.9440    0.3836   -1.7780 H   0  0  0  0  0  0  0  0  0  0  0  0
    1.3948    0.1711    1.2648 H   0  0  0  0  0  0  0  0  0  0  0  0
    1.5060   -1.1809    0.1385 H   0  0  0  0  0  0  0  0  0  0  0  0
   -0.2195   -1.5034   -2.2957 H   0  0  0  0  0  0  0  0  0  0  0  0
   -0.4694    2.4901   -2.1215 H   0  0  0  0  0  0  0  0  0  0  0  0
    3.3860   -0.0721   -1.0660 H   0  0  0  0  0  0  0  0  0  0  0  0
    3.2003    1.3494   -0.0404 H   0  0  0  0  0  0  0  0  0  0  0  0
   -2.9443   -3.1096    1.5176 H   0  0  0  0  0  0  0  0  0  0  0  0
   -4.5864    2.7805    0.5755 H   0  0  0  0  0  0  0  0  0  0  0  0
    6.0899   -0.1018    1.4913 H   0  0  0  0  0  0  0  0  0  0  0  0
    5.7989   -0.0043   -0.2600 H   0  0  0  0  0  0  0  0  0  0  0  0
    5.3795    1.3518    0.8106 H   0  0  0  0  0  0  0  0  0  0  0  0
    4.3885   -2.1323   -0.0946 H   0  0  0  0  0  0  0  0  0  0  0  0
    4.8514   -2.1322    1.6192 H   0  0  0  0  0  0  0  0  0  0  0  0
    3.1591   -2.2031    1.1897 H   0  0  0  0  0  0  0  0  0  0  0  0
   -1.9613    4.3928   -2.3849 H   0  0  0  0  0  0  0  0  0  0  0  0
   -0.9502   -3.8483   -2.2049 H   0  0  0  0  0  0  0  0  0  0  0  0
   -4.0421    4.5488   -1.0422 H   0  0  0  0  0  0  0  0  0  0  0  0
   -2.3167   -4.6595   -0.2992 H   0  0  0  0  0  0  0  0  0  0  0  0
    0.3457   -2.0317   -0.5042 H   0  0  0  0  0  0  0  0  0  0  0  0
    0.1225   -1.1100   -1.9520 H   0  0  0  0  0  0  0  0  0  0  0  0
    4.7061    1.8362    0.1215 H   0  0  0  0  0  0  0  0  0  0  0  0
   -4.7598    0.5432    0.8077 H   0  0  0  0  0  0  0  0  0  0  0  0
    1.5887    1.5968   -3.1862 H   0  0  0  0  0  0  0  0  0  0  0  0
   -0.5608    2.1837    1.2704 H   0  0  0  0  0  0  0  0  0  0  0  0
    4.8475    3.7117   -2.6524 H   0  0  0  0  0  0  0  0  0  0  0  0
   -4.0768    3.3460    2.4792 H   0  0  0  0  0  0  0  0  0  0  0  0
    0.8731   -1.8957    1.5939 H   0  0  0  0  0  0  0  0  0  0  0  0
   -1.3125   -2.8891   -1.8524 H   0  0  0  0  0  0  0  0  0  0  0  0
    5.0109    0.7334    2.2465 H   0  0  0  0  0  0  0  0  0  0  0  0
   -5.7394   -1.3604   -0.2758 H   0  0  0  0  0  0  0  0  0  0  0  0
   -3.3073   -4.1636   -2.3956 H   0  0  0  0  0  0  0  0  0  0  0  0
    2.1890   -2.1688    3.6262 H   0  0  0  0  0  0  0  0  0  0  0  0
   -5.5374   -3.4104   -1.6138 H   0  0  0  0  0  0  0  0  0  0  0  0
    4.2669   -0.8576    3.9652 H   0  0  0  0  0  0  0  0  0  0  0  0
   -3.6599    0.3416   -0.8454 H   0  0  0  0  0  0  0  0  0  0  0  0
   -2.9650    1.7281   -1.6862 H   0  0  0  0  0  0  0  0  0  0  0  0
   -2.1082   -0.1780   -2.7586 H   0  0  0  0  0  0  0  0  0  0  0  0
   -0.7646    0.5208   -1.8808 H   0  0  0  0  0  0  0  0  0  0  0  0
    0.8799   -0.2425    2.4758 H   0  0  0  0  0  0  0  0  0  0  0  0
    1.4098   -1.1529    1.0951 H   0  0  0  0  0  0  0  0  0  0  0  0
    1.4177    1.9056    1.0795 H   0  0  0  0  0  0  0  0  0  0  0  0
    2.7640    0.9160    1.5825 H   0  0  0  0  0  0  0  0  0  0  0  0
   -0.3468   -2.5484    1.9020 H   0  0  0  0  0  0  0  0  0  0  0  0
   -0.2291    1.4464    3.0241 H   0  0  0  0  0  0  0  0  0  0  0  0
    2.8594    1.7144   -0.8241 H   0  0  0  0  0  0  0  0  0  0  0  0
    1.3964    0.8062   -1.1444 H   0  0  0  0  0  0  0  0  0  0  0  0
   -2.4873   -2.4815   -2.5591 H   0  0  0  0  0  0  0  0  0  0  0  0
   -3.9241    2.9301    0.1282 H   0  0  0  0  0  0  0  0  0  0  0  0
    3.6723   -1.5756   -2.4854 H   0  0  0  0  0  0  0  0  0  0  0  0
    3.5198    0.1589   -2.8445 H   0  0  0  0  0  0  0  0  0  0  0  0
    2.0771   -0.8546   -2.6117 H   0  0  0  0  0  0  0  0  0  0  0  0
    4.5283   -0.1211    0.7310 H   0  0  0  0  0  0  0  0  0  0  0  0
    5.0042    0.5865   -0.8272 H   0  0  0  0  0  0  0  0  0  0  0  0
    5.0557   -1.1692   -0.5679 H   0  0  0  0  0  0  0  0  0  0  0  0
   -1.5786    3.3471    3.6701 H   0  0  0  0  0  0  0  0  0  0  0  0
   -1.1486   -4.6387    0.8921 H   0  0  0  0  0  0  0  0  0  0  0  0
   -3.4543    4.1052    2.2328 H   0  0  0  0  0  0  0  0  0  0  0  0
   -2.2212   -4.6137   -1.3460 H   0  0  0  0  0  0  0  0  0  0  0  0
  2  1  1  0
  3  1  1  0
  4  2  2  0
  5  3  2  0
  6  4  1  0
  7  5  1  0
  8  1  1  0
  9  8  1  0
 10 13  1  0
 11  3  1  0
 12  2  1  0
 13  9  1  0
 14  5  1  0
 15  4  1  0
 16 10  1  0
 17 10  1  0
 18 12  2  0
 19 11  2  0
 20 15  2  0
 21 14  2  0
  6  7  1  0
 18 20  1  0
 19 21  1  0
 23 27  2  0
 24 28  1  0
 25 26  1  0
 26 22  2  0
 27 24  1  0
 28 25  1  0
 29 22  1  0
 30 23  1  0
 31 22  1  0
 32 23  1  0
 33 24  2  0
 34 35  1  0
 35 29  2  0
 36 33  1  0
 37 31  2  0
 38 32  2  0
 39 26  1  0
 40 27  1  0
 41 31  1  0
 42 32  1  0
 43 34  1  0
 44 33  1  0
 45 35  1  0
 46 36  1  0
 47 44  2  0
 48 43  2  0
 49 47  1  0
 50 45  2  0
 25 34  2  0
 48 50  1  0
 30 36  2  0
 46 49  2  0
 52 51  1  0
 53 51  1  0
 54 52  2  0
 55 53  2  0
 56 54  1  0
 57 55  1  0
 58 51  1  0
 59 58  1  0
 60 63  1  0
 61 53  1  0
 62 52  1  0
 63 59  1  0
 64 55  1  0
 65 54  1  0
 66 60  1  0
 67 60  1  0
 68 62  2  0
 69 61  2  0
 70 65  2  0
 71 64  2  0
 56 57  1  0
 68 70  1  0
 69 71  1  0
  6 72  1  0
  6 73  1  0
  7 74  1  0
  7 75  1  0
  8 76  1  0
  8 77  1  0
  9 78  1  0
  9 79  1  0
 11 80  1  0
 12 81  1  0
 13 82  1  0
 13 83  1  0
 14 84  1  0
 15 85  1  0
 16 86  1  0
 16 87  1  0
 16 88  1  0
 17 89  1  0
 17 90  1  0
 17 91  1  0
 18 92  1  0
 19 93  1  0
 20 94  1  0
 21 95  1  0
 28 96  1  0
 28 97  1  0
 29 98  1  0
 30 99  1  0
 39100  1  0
 40101  1  0
 41102  1  0
 42103  1  0
 43104  1  0
 44105  1  0
 45106  1  0
 46107  1  0
 47108  1  0
 48109  1  0
 49110  1  0
 50111  1  0
 56112  1  0
 56113  1  0
 57114  1  0
 57115  1  0
 58116  1  0
 58117  1  0
 59118  1  0
 59119  1  0
 61120  1  0
 62121  1  0
 63122  1  0
 63123  1  0
 64124  1  0
 65125  1  0
 66126  1  0
 66127  1  0
 66128  1  0
 67129  1  0
 67130  1  0
 67131  1  0
 68132  1  0
 69133  1  0
 70134  1  0
 71135  1  0
M  END
$$$$
