
     RDKit          3D

 71 78  0  0  0  0  0  0  0  0999 V2000
   -0.2867   -0.1222   -0.5617 N   0  0  0  0  0  0  0  0  0  0  0  0
   -0.3179    1.2164   -0.0898 C   0  0  0  0  0  0  0  0  0  0  0  0
   -1.3612   -1.0515   -0.5391 C   0  0  0  0  0  0  0  0  0  0  0  0
   -1.3619    1.8567    0.5724 C   0  0  0  0  0  0  0  0  0  0  0  0
   -2.4341   -1.0216    0.3347 C   0  0  0  0  0  0  0  0  0  0  0  0
   -2.7042    1.3764    0.9828 C   0  0  0  0  0  0  0  0  0  0  0  0
   -2.7256   -0.0510    1.4277 C   0  0  0  0  0  0  0  0  0  0  0  0
    0.9560   -0.6197   -1.1316 C   0  0  0  0  0  0  0  0  0  0  0  0
    1.9870   -0.5285   -0.0084 C   0  0  0  0  0  0  0  0  0  0  0  0
    4.2635   -0.9027    0.6458 N   0  0  0  0  0  0  0  0  0  0  0  0
   -1.2275   -2.0255   -1.5095 C   0  0  0  0  0  0  0  0  0  0  0  0
    0.8591    1.8503   -0.3767 C   0  0  0  0  0  0  0  0  0  0  0  0
    3.3277   -1.0182   -0.4630 C   0  0  0  0  0  0  0  0  0  0  0  0
   -3.3752   -2.0200    0.1909 C   0  0  0  0  0  0  0  0  0  0  0  0
   -1.1843    3.1789    0.9443 C   0  0  0  0  0  0  0  0  0  0  0  0
    4.5340    0.4792    0.9600 C   0  0  0  0  0  0  0  0  0  0  0  0
    5.5302   -1.5639    0.3331 C   0  0  0  0  0  0  0  0  0  0  0  0
    1.0164    3.1674    0.0016 C   0  0  0  0  0  0  0  0  0  0  0  0
   -2.2048   -3.0056   -1.6088 C   0  0  0  0  0  0  0  0  0  0  0  0
    0.0014    3.8210    0.6559 C   0  0  0  0  0  0  0  0  0  0  0  0
   -3.2918   -3.0159   -0.7607 C   0  0  0  0  0  0  0  0  0  0  0  0
   -2.8811   -0.6858   -1.3021 C   0  0  0  0  0  0  0  0  0  0  0  0
    3.1546    0.6568   -0.1211 C   0  0  0  0  0  0  0  0  0  0  0  0
    1.0858   -0.1162    0.9043 C   0  0  0  0  0  0  0  0  0  0  0  0
   -1.3625    0.1532    0.3997 C   0  0  0  0  0  0  0  0  0  0  0  0
   -1.8330   -0.8492   -0.4128 C   0  0  0  0  0  0  0  0  0  0  0  0
    1.8478    0.8496    0.2834 C   0  0  0  0  0  0  0  0  0  0  0  0
   -0.2762    0.0319    1.3793 C   0  0  0  0  0  0  0  0  0  0  0  0
   -3.5093    0.5384   -1.4022 C   0  0  0  0  0  0  0  0  0  0  0  0
    3.7457   -0.5692    0.1029 C   0  0  0  0  0  0  0  0  0  0  0  0
   -3.3301   -1.7959   -2.1367 C   0  0  0  0  0  0  0  0  0  0  0  0
    3.9103    1.7305   -0.7787 C   0  0  0  0  0  0  0  0  0  0  0  0
    1.7134   -1.3604    1.1225 C   0  0  0  0  0  0  0  0  0  0  0  0
   -2.0149    1.3870    0.2824 C   0  0  0  0  0  0  0  0  0  0  0  0
   -3.0667    1.5708   -0.6025 C   0  0  0  0  0  0  0  0  0  0  0  0
    3.0168   -1.5799    0.7287 C   0  0  0  0  0  0  0  0  0  0  0  0
   -4.2826   -1.6363   -2.9413 O   0  0  0  0  0  0  0  0  0  0  0  0
    5.1030    1.5109   -1.1327 O   0  0  0  0  0  0  0  0  0  0  0  0
   -1.2575   -2.1057   -0.3729 O   0  0  0  0  0  0  0  0  0  0  0  0
    1.3081    2.1038    0.0309 O   0  0  0  0  0  0  0  0  0  0  0  0
   -2.6925   -3.0317   -2.0316 O   0  0  0  0  0  0  0  0  0  0  0  0
    3.2819    2.9515   -0.9869 O   0  0  0  0  0  0  0  0  0  0  0  0
   -1.6633    2.4807    1.0412 C   0  0  0  0  0  0  0  0  0  0  0  0
    1.0518   -2.3931    1.7484 C   0  0  0  0  0  0  0  0  0  0  0  0
   -3.7320    2.7761   -0.7273 C   0  0  0  0  0  0  0  0  0  0  0  0
    3.6889   -2.7670    0.9242 C   0  0  0  0  0  0  0  0  0  0  0  0
    1.6814   -3.5913    1.9640 C   0  0  0  0  0  0  0  0  0  0  0  0
   -2.3093    3.6750    0.9302 C   0  0  0  0  0  0  0  0  0  0  0  0
    2.9831   -3.7909    1.5624 C   0  0  0  0  0  0  0  0  0  0  0  0
   -3.3616    3.8566    0.0428 C   0  0  0  0  0  0  0  0  0  0  0  0
    0.0051    0.1190    0.6410 N   0  0  0  0  0  0  0  0  0  0  0  0
   -0.6709    1.2602    0.0703 C   0  0  0  0  0  0  0  0  0  0  0  0
   -0.4720   -1.2056    0.5569 C   0  0  0  0  0  0  0  0  0  0  0  0
   -1.7362    1.2438   -0.8441 C   0  0  0  0  0  0  0  0  0  0  0  0
   -1.1993   -1.7868   -0.4571 C   0  0  0  0  0  0  0  0  0  0  0  0
   -2.4626    0.1201   -1.4681 C   0  0  0  0  0  0  0  0  0  0  0  0
   -1.6495   -1.1099   -1.7189 C   0  0  0  0  0  0  0  0  0  0  0  0
    1.2443    0.3948    1.3753 C   0  0  0  0  0  0  0  0  0  0  0  0
    2.0180    1.3381    0.4873 C   0  0  0  0  0  0  0  0  0  0  0  0
    3.2839   -0.3909   -0.6127 N   0  0  0  0  0  0  0  0  0  0  0  0
   -0.1082   -1.9238    1.6979 C   0  0  0  0  0  0  0  0  0  0  0  0
   -0.1564    2.4527    0.5193 C   0  0  0  0  0  0  0  0  0  0  0  0
    2.3605    0.6978   -0.8080 C   0  0  0  0  0  0  0  0  0  0  0  0
   -1.5809   -3.0977   -0.3557 C   0  0  0  0  0  0  0  0  0  0  0  0
   -2.2160    2.4882   -1.2483 C   0  0  0  0  0  0  0  0  0  0  0  0
    4.5662    0.2640   -0.2335 C   0  0  0  0  0  0  0  0  0  0  0  0
    2.8756   -1.1208    0.5705 C   0  0  0  0  0  0  0  0  0  0  0  0
   -0.6541    3.6526    0.0997 C   0  0  0  0  0  0  0  0  0  0  0  0
   -0.5067   -3.2500    1.7765 C   0  0  0  0  0  0  0  0  0  0  0  0
   -1.7010    3.6828   -0.7979 C   0  0  0  0  0  0  0  0  0  0  0  0
   -1.2396   -3.8289    0.7496 C   0  0  0  0  0  0  0  0  0  0  0  0
  2  1  1  0
  3  1  1  0
  4  2  2  0
  5  3  2  0
  6  4  1  0
  7  5  1  0
  8  1  1  0
  9  8  1  0
 10 13  1  0
 11  3  1  0
 12  2  1  0
 13  9  1  0
 14  5  1  0
 15  4  1  0
 16 10  1  0
 17 10  1  0
 18 12  2  0
 19 11  2  0
 20 15  2  0
 21 14  2  0
  6  7  1  0
 18 20  1  0
 19 21  1  0
 23 27  2  0
 24 28  1  0
 25 26  1  0
 26 22  2  0
 27 24  1  0
 28 25  1  0
 29 22  1  0
 30 23  1  0
 31 22  1  0
 32 23  1  0
 33 24  2  0
 34 35  1  0
 35 29  2  0
 36 33  1  0
 37 31  2  0
 38 32  2  0
 39 26  1  0
 40 27  1  0
 41 31  1  0
 42 32  1  0
 43 34  1  0
 44 33  1  0
 45 35  1  0
 46 36  1  0
 47 44  2  0
 48 43  2  0
 49 47  1  0
 50 45  2  0
 25 34  2  0
 48 50  1  0
 30 36  2  0
 46 49  2  0
 52 51  1  0
 53 51  1  0
 54 52  2  0
 55 53  2  0
 56 54  1  0
 57 55  1  0
 58 51  1  0
 59 58  1  0
 60 63  1  0
 61 53  1  0
 62 52  1  0
 63 59  1  0
 64 55  1  0
 65 54  1  0
 66 60  1  0
 67 60  1  0
 68 62  2  0
 69 61  2  0
 70 65  2  0
 71 64  2  0
 56 57  1  0
 68 70  1  0
 69 71  1  0
M  END
