
     RDKit          3D

135142  0  0  0  0  0  0  0  0999 V2000
   -0.7882   -0.0356    0.3336 N   0  0  0  0  0  0  0  0  0  0  0  0
   -1.3056   -1.3728    0.3750 C   0  0  0  0  0  0  0  0  0  0  0  0
   -1.4144    1.1983   -0.0452 C   0  0  0  0  0  0  0  0  0  0  0  0
   -2.6448   -1.6797    0.6740 C   0  0  0  0  0  0  0  0  0  0  0  0
   -2.7547    1.3128   -0.4853 C   0  0  0  0  0  0  0  0  0  0  0  0
   -3.6736   -0.6041    0.8464 C   0  0  0  0  0  0  0  0  0  0  0  0
   -3.7587    0.1894   -0.4461 C   0  0  0  0  0  0  0  0  0  0  0  0
    0.5203    0.0711    1.0432 C   0  0  0  0  0  0  0  0  0  0  0  0
    1.7212    0.1897    0.0848 C   0  0  0  0  0  0  0  0  0  0  0  0
    4.1905    0.6777    0.0602 N   0  0  0  0  0  0  0  0  0  0  0  0
   -0.6826    2.4158   -0.0503 C   0  0  0  0  0  0  0  0  0  0  0  0
   -0.4561   -2.4780    0.1313 C   0  0  0  0  0  0  0  0  0  0  0  0
    3.0227    0.3303    0.8869 C   0  0  0  0  0  0  0  0  0  0  0  0
   -3.2595    2.5459   -0.9767 C   0  0  0  0  0  0  0  0  0  0  0  0
   -3.0745   -3.0215    0.7859 C   0  0  0  0  0  0  0  0  0  0  0  0
    5.3543    0.9247    0.9163 C   0  0  0  0  0  0  0  0  0  0  0  0
    4.5091   -0.3545   -0.9265 C   0  0  0  0  0  0  0  0  0  0  0  0
   -0.8876   -3.8059    0.2295 C   0  0  0  0  0  0  0  0  0  0  0  0
   -1.1970    3.6357   -0.5102 C   0  0  0  0  0  0  0  0  0  0  0  0
   -2.1994   -4.0789    0.5722 C   0  0  0  0  0  0  0  0  0  0  0  0
   -2.4874    3.6975   -0.9923 C   0  0  0  0  0  0  0  0  0  0  0  0
   -3.3735    1.5721   -0.7735 C   0  0  0  0  0  0  0  0  0  0  0  0
    2.5748    1.2316    0.9936 C   0  0  0  0  0  0  0  0  0  0  0  0
    1.2642    0.0272   -0.6940 C   0  0  0  0  0  0  0  0  0  0  0  0
   -1.3395    0.2192   -0.8983 C   0  0  0  0  0  0  0  0  0  0  0  0
   -2.1630    1.2552   -1.3920 C   0  0  0  0  0  0  0  0  0  0  0  0
    1.4659    1.1485    0.1430 C   0  0  0  0  0  0  0  0  0  0  0  0
    0.0097   -0.0452   -1.5680 C   0  0  0  0  0  0  0  0  0  0  0  0
   -3.7757    0.8708    0.3636 C   0  0  0  0  0  0  0  0  0  0  0  0
    3.5231    0.2058    0.9799 C   0  0  0  0  0  0  0  0  0  0  0  0
   -4.2837    2.6220   -1.2724 C   0  0  0  0  0  0  0  0  0  0  0  0
    2.8312    2.3573    1.9298 C   0  0  0  0  0  0  0  0  0  0  0  0
    2.2665   -0.9989   -0.7370 C   0  0  0  0  0  0  0  0  0  0  0  0
   -1.7917   -0.5507    0.2219 C   0  0  0  0  0  0  0  0  0  0  0  0
   -3.0086   -0.1902    0.8594 C   0  0  0  0  0  0  0  0  0  0  0  0
    3.3905   -0.8925    0.1240 C   0  0  0  0  0  0  0  0  0  0  0  0
   -4.9388    3.3825   -0.5825 O   0  0  0  0  0  0  0  0  0  0  0  0
    3.8059    2.4898    2.6451 O   0  0  0  0  0  0  0  0  0  0  0  0
   -1.7588    1.9957   -2.4703 O   0  0  0  0  0  0  0  0  0  0  0  0
    0.5449    2.1610    0.0713 O   0  0  0  0  0  0  0  0  0  0  0  0
   -4.4379    2.5734   -2.6087 O   0  0  0  0  0  0  0  0  0  0  0  0
    1.8414    3.2716    1.9436 O   0  0  0  0  0  0  0  0  0  0  0  0
   -1.1044   -1.6685    0.7541 C   0  0  0  0  0  0  0  0  0  0  0  0
    2.2294   -2.1355   -1.5865 C   0  0  0  0  0  0  0  0  0  0  0  0
   -3.4601   -0.8961    1.9870 C   0  0  0  0  0  0  0  0  0  0  0  0
    4.3866   -1.8831    0.1286 C   0  0  0  0  0  0  0  0  0  0  0  0
    3.2300   -3.1128   -1.5742 C   0  0  0  0  0  0  0  0  0  0  0  0
   -1.5677   -2.3669    1.8731 C   0  0  0  0  0  0  0  0  0  0  0  0
    4.3085   -2.9877   -0.7142 C   0  0  0  0  0  0  0  0  0  0  0  0
   -2.7417   -1.9747    2.4957 C   0  0  0  0  0  0  0  0  0  0  0  0
   -0.6803    0.2738    0.6532 N   0  0  0  0  0  0  0  0  0  0  0  0
   -1.1549   -1.0588    0.6889 C   0  0  0  0  0  0  0  0  0  0  0  0
   -1.4839    1.4391    0.6257 C   0  0  0  0  0  0  0  0  0  0  0  0
   -2.3210   -1.4911    0.0146 C   0  0  0  0  0  0  0  0  0  0  0  0
   -2.3996    1.6589   -0.4126 C   0  0  0  0  0  0  0  0  0  0  0  0
   -3.1742   -0.6418   -0.9088 C   0  0  0  0  0  0  0  0  0  0  0  0
   -2.5486    0.6208   -1.4876 C   0  0  0  0  0  0  0  0  0  0  0  0
    0.7663    0.5482    0.8042 C   0  0  0  0  0  0  0  0  0  0  0  0
    1.5733   -0.0187   -0.3733 C   0  0  0  0  0  0  0  0  0  0  0  0
    3.8816   -0.0789   -1.3665 N   0  0  0  0  0  0  0  0  0  0  0  0
   -1.3874    2.4056    1.6424 C   0  0  0  0  0  0  0  0  0  0  0  0
   -0.4782   -2.0258    1.4706 C   0  0  0  0  0  0  0  0  0  0  0  0
    3.0644    0.3067   -0.2039 C   0  0  0  0  0  0  0  0  0  0  0  0
   -3.1769    2.8281   -0.4378 C   0  0  0  0  0  0  0  0  0  0  0  0
   -2.7745   -2.8238    0.1785 C   0  0  0  0  0  0  0  0  0  0  0  0
    3.9835   -1.5322   -1.5159 C   0  0  0  0  0  0  0  0  0  0  0  0
    5.2240    0.5002   -1.2556 C   0  0  0  0  0  0  0  0  0  0  0  0
   -0.9282   -3.3425    1.6058 C   0  0  0  0  0  0  0  0  0  0  0  0
   -2.1652    3.5648    1.6189 C   0  0  0  0  0  0  0  0  0  0  0  0
   -2.0853   -3.7420    0.9625 C   0  0  0  0  0  0  0  0  0  0  0  0
   -3.0575    3.7779    0.5744 C   0  0  0  0  0  0  0  0  0  0  0  0
   -3.4397    0.0167    1.7191 H   0  0  0  0  0  0  0  0  0  0  0  0
   -4.6551   -1.0541    1.0435 H   0  0  0  0  0  0  0  0  0  0  0  0
   -4.7715    0.6104   -0.4936 H   0  0  0  0  0  0  0  0  0  0  0  0
   -3.6414   -0.4365   -1.3400 H   0  0  0  0  0  0  0  0  0  0  0  0
    0.6830   -0.7890    1.7089 H   0  0  0  0  0  0  0  0  0  0  0  0
    0.4984    0.9133    1.7481 H   0  0  0  0  0  0  0  0  0  0  0  0
    1.7774   -0.6883   -0.5641 H   0  0  0  0  0  0  0  0  0  0  0  0
    1.6128    1.0439   -0.5898 H   0  0  0  0  0  0  0  0  0  0  0  0
    0.3429    2.4692    0.2959 H   0  0  0  0  0  0  0  0  0  0  0  0
    0.5745   -2.3296   -0.1642 H   0  0  0  0  0  0  0  0  0  0  0  0
    2.8756    1.1304    1.6251 H   0  0  0  0  0  0  0  0  0  0  0  0
    3.2081   -0.5947    1.4502 H   0  0  0  0  0  0  0  0  0  0  0  0
   -4.2833    2.6099   -1.3406 H   0  0  0  0  0  0  0  0  0  0  0  0
   -4.1108   -3.2452    1.0305 H   0  0  0  0  0  0  0  0  0  0  0  0
    5.6384    0.0364    1.4924 H   0  0  0  0  0  0  0  0  0  0  0  0
    5.1512    1.7419    1.6190 H   0  0  0  0  0  0  0  0  0  0  0  0
    6.2155    1.2379    0.3160 H   0  0  0  0  0  0  0  0  0  0  0  0
    4.6610   -1.3354   -0.4646 H   0  0  0  0  0  0  0  0  0  0  0  0
    3.7190   -0.4375   -1.6781 H   0  0  0  0  0  0  0  0  0  0  0  0
    5.4190   -0.0915   -1.4787 H   0  0  0  0  0  0  0  0  0  0  0  0
   -0.1932   -4.6182    0.0334 H   0  0  0  0  0  0  0  0  0  0  0  0
   -0.5730    4.5249   -0.4989 H   0  0  0  0  0  0  0  0  0  0  0  0
   -2.5469   -5.1040    0.6539 H   0  0  0  0  0  0  0  0  0  0  0  0
   -2.8957    4.6314   -1.3674 H   0  0  0  0  0  0  0  0  0  0  0  0
    0.1894    0.6464   -2.3997 H   0  0  0  0  0  0  0  0  0  0  0  0
   -0.1058   -1.0227   -2.0428 H   0  0  0  0  0  0  0  0  0  0  0  0
   -4.7106    1.1438    0.8499 H   0  0  0  0  0  0  0  0  0  0  0  0
    4.3875    0.2753    1.6392 H   0  0  0  0  0  0  0  0  0  0  0  0
   -1.7438    1.3950   -3.2351 H   0  0  0  0  0  0  0  0  0  0  0  0
    0.7502    2.8242    0.7614 H   0  0  0  0  0  0  0  0  0  0  0  0
   -5.0826    3.2883   -2.7944 H   0  0  0  0  0  0  0  0  0  0  0  0
    2.1495    3.9230    2.6131 H   0  0  0  0  0  0  0  0  0  0  0  0
   -0.1854   -2.0256    0.3010 H   0  0  0  0  0  0  0  0  0  0  0  0
    1.4194   -2.2885   -2.2939 H   0  0  0  0  0  0  0  0  0  0  0  0
   -4.3856   -0.6097    2.4829 H   0  0  0  0  0  0  0  0  0  0  0  0
    5.2448   -1.7977    0.7925 H   0  0  0  0  0  0  0  0  0  0  0  0
    3.1607   -3.9688   -2.2415 H   0  0  0  0  0  0  0  0  0  0  0  0
   -1.0016   -3.2123    2.2558 H   0  0  0  0  0  0  0  0  0  0  0  0
    5.0898   -3.7422   -0.6996 H   0  0  0  0  0  0  0  0  0  0  0  0
   -3.1035   -2.5094    3.3694 H   0  0  0  0  0  0  0  0  0  0  0  0
   -4.1019   -0.3924   -0.3754 H   0  0  0  0  0  0  0  0  0  0  0  0
   -3.4588   -1.2685   -1.7661 H   0  0  0  0  0  0  0  0  0  0  0  0
   -1.5782    0.4167   -1.9568 H   0  0  0  0  0  0  0  0  0  0  0  0
   -3.1976    1.0040   -2.2842 H   0  0  0  0  0  0  0  0  0  0  0  0
    0.9620    1.6301    0.8221 H   0  0  0  0  0  0  0  0  0  0  0  0
    1.1441    0.1770    1.7628 H   0  0  0  0  0  0  0  0  0  0  0  0
    1.2032    0.4190   -1.3128 H   0  0  0  0  0  0  0  0  0  0  0  0
    1.4265   -1.1029   -0.4466 H   0  0  0  0  0  0  0  0  0  0  0  0
   -0.7155    2.2447    2.4812 H   0  0  0  0  0  0  0  0  0  0  0  0
    0.4104   -1.7617    2.0349 H   0  0  0  0  0  0  0  0  0  0  0  0
    3.1484    1.3927   -0.0641 H   0  0  0  0  0  0  0  0  0  0  0  0
    3.4475   -0.1604    0.7127 H   0  0  0  0  0  0  0  0  0  0  0  0
   -3.8847    2.9988   -1.2444 H   0  0  0  0  0  0  0  0  0  0  0  0
   -3.6842   -3.1518   -0.3231 H   0  0  0  0  0  0  0  0  0  0  0  0
    3.0060   -1.9832   -1.7152 H   0  0  0  0  0  0  0  0  0  0  0  0
    4.6110   -1.7844   -2.3784 H   0  0  0  0  0  0  0  0  0  0  0  0
    4.4140   -2.0082   -0.6280 H   0  0  0  0  0  0  0  0  0  0  0  0
    5.8222    0.2562   -2.1395 H   0  0  0  0  0  0  0  0  0  0  0  0
    5.7549    0.1407   -0.3669 H   0  0  0  0  0  0  0  0  0  0  0  0
    5.1702    1.5928   -1.2087 H   0  0  0  0  0  0  0  0  0  0  0  0
   -0.3785   -4.0433    2.2288 H   0  0  0  0  0  0  0  0  0  0  0  0
   -2.0775    4.2941    2.4194 H   0  0  0  0  0  0  0  0  0  0  0  0
   -2.4543   -4.7560    1.0712 H   0  0  0  0  0  0  0  0  0  0  0  0
   -3.6668    4.6771    0.5518 H   0  0  0  0  0  0  0  0  0  0  0  0
  2  1  1  0
  3  1  1  0
  4  2  2  0
  5  3  2  0
  6  4  1  0
  7  5  1  0
  8  1  1  0
  9  8  1  0
 10 13  1  0
 11  3  1  0
 12  2  1  0
 13  9  1  0
 14  5  1  0
 15  4  1  0
 16 10  1  0
 17 10  1  0
 18 12  2  0
 19 11  2  0
 20 15  2  0
 21 14  2  0
  6  7  1  0
 18 20  1  0
 19 21  1  0
 23 27  2  0
 24 28  1  0
 25 26  1  0
 26 22  2  0
 27 24  1  0
 28 25  1  0
 29 22  1  0
 30 23  1  0
 31 22  1  0
 32 23  1  0
 33 24  2  0
 34 35  1  0
 35 29  2  0
 36 33  1  0
 37 31  2  0
 38 32  2  0
 39 26  1  0
 40 27  1  0
 41 31  1  0
 42 32  1  0
 43 34  1  0
 44 33  1  0
 45 35  1  0
 46 36  1  0
 47 44  2  0
 48 43  2  0
 49 47  1  0
 50 45  2  0
 25 34  2  0
 48 50  1  0
 30 36  2  0
 46 49  2  0
 52 51  1  0
 53 51  1  0
 54 52  2  0
 55 53  2  0
 56 54  1  0
 57 55  1  0
 58 51  1  0
 59 58  1  0
 60 63  1  0
 61 53  1  0
 62 52  1  0
 63 59  1  0
 64 55  1  0
 65 54  1  0
 66 60  1  0
 67 60  1  0
 68 62  2  0
 69 61  2  0
 70 65  2  0
 71 64  2  0
 56 57  1  0
 68 70  1  0
 69 71  1  0
  6 72  1  0
  6 73  1  0
  7 74  1  0
  7 75  1  0
  8 76  1  0
  8 77  1  0
  9 78  1  0
  9 79  1  0
 11 80  1  0
 12 81  1  0
 13 82  1  0
 13 83  1  0
 14 84  1  0
 15 85  1  0
 16 86  1  0
 16 87  1  0
 16 88  1  0
 17 89  1  0
 17 90  1  0
 17 91  1  0
 18 92  1  0
 19 93  1  0
 20 94  1  0
 21 95  1  0
 28 96  1  0
 28 97  1  0
 29 98  1  0
 30 99  1  0
 39100  1  0
 40101  1  0
 41102  1  0
 42103  1  0
 43104  1  0
 44105  1  0
 45106  1  0
 46107  1  0
 47108  1  0
 48109  1  0
 49110  1  0
 50111  1  0
 56112  1  0
 56113  1  0
 57114  1  0
 57115  1  0
 58116  1  0
 58117  1  0
 59118  1  0
 59119  1  0
 61120  1  0
 62121  1  0
 63122  1  0
 63123  1  0
 64124  1  0
 65125  1  0
 66126  1  0
 66127  1  0
 66128  1  0
 67129  1  0
 67130  1  0
 67131  1  0
 68132  1  0
 69133  1  0
 70134  1  0
 71135  1  0
M  END
$$$$
