
     RDKit          3D

 48 50  0  0  0  0  0  0  0  0999 V2000
   -0.7382   -1.3065    0.1560 C   0  0  0  0  0  0  0  0  0  0  0  0
   -1.7951   -0.7813    1.0804 C   0  0  0  0  0  0  0  0  0  0  0  0
    0.5919   -1.1443    0.5910 C   0  0  0  0  0  0  0  0  0  0  0  0
    3.0784   -1.4226    0.2281 C   0  0  0  0  0  0  0  0  0  0  0  0
    1.6599   -1.5790   -0.1976 C   0  0  0  0  0  0  0  0  0  0  0  0
   -3.0839   -1.2103    0.8771 N   0  0  0  0  0  0  0  0  0  0  0  0
    3.3517   -0.3901    1.0993 N   0  0  0  0  0  0  0  0  0  0  0  0
   -0.9971   -1.9131   -1.0912 C   0  0  0  0  0  0  0  0  0  0  0  0
   -1.4853   -0.0044    1.9798 O   0  0  0  0  0  0  0  0  0  0  0  0
    3.9375   -2.1728   -0.2212 O   0  0  0  0  0  0  0  0  0  0  0  0
   -6.7103    1.0152   -0.7080 N   0  0  0  0  0  0  0  0  0  0  0  0
    6.3014    1.7243   -1.4601 N   0  0  0  0  0  0  0  0  0  0  0  0
    1.3963   -2.2072   -1.4169 C   0  0  0  0  0  0  0  0  0  0  0  0
    0.0804   -2.3725   -1.8604 C   0  0  0  0  0  0  0  0  0  0  0  0
   -4.8981    0.3979    0.7805 C   0  0  0  0  0  0  0  0  0  0  0  0
    5.2521    1.0445    0.6178 C   0  0  0  0  0  0  0  0  0  0  0  0
    4.7105   -0.0640    1.4712 C   0  0  0  0  0  0  0  0  0  0  0  0
   -4.2093   -0.6586    1.5934 C   0  0  0  0  0  0  0  0  0  0  0  0
   -2.3055   -2.0439   -1.4837 O   0  0  0  0  0  0  0  0  0  0  0  0
    5.8088    0.7761   -0.6295 C   0  0  0  0  0  0  0  0  0  0  0  0
   -6.0541    0.1160    0.0605 C   0  0  0  0  0  0  0  0  0  0  0  0
   -6.1874    2.2591   -0.7640 C   0  0  0  0  0  0  0  0  0  0  0  0
    6.2303    3.0022   -1.0327 C   0  0  0  0  0  0  0  0  0  0  0  0
   -4.3851    1.6950    0.6884 C   0  0  0  0  0  0  0  0  0  0  0  0
    5.1874    2.3819    1.0193 C   0  0  0  0  0  0  0  0  0  0  0  0
   -2.5530   -2.3099   -2.8617 C   0  0  0  0  0  0  0  0  0  0  0  0
   -5.0389    2.6431   -0.0924 C   0  0  0  0  0  0  0  0  0  0  0  0
    5.6866    3.3775    0.1844 C   0  0  0  0  0  0  0  0  0  0  0  0
    0.7753   -0.6997    1.5666 H   0  0  0  0  0  0  0  0  0  0  0  0
   -3.2707   -1.7411    0.0325 H   0  0  0  0  0  0  0  0  0  0  0  0
    2.6513    0.3201    1.2618 H   0  0  0  0  0  0  0  0  0  0  0  0
    2.2191   -2.5707   -2.0316 H   0  0  0  0  0  0  0  0  0  0  0  0
   -0.0663   -2.8736   -2.8127 H   0  0  0  0  0  0  0  0  0  0  0  0
    4.6926    0.2415    2.5233 H   0  0  0  0  0  0  0  0  0  0  0  0
    5.3541   -0.9486    1.4046 H   0  0  0  0  0  0  0  0  0  0  0  0
   -3.8903   -0.2454    2.5569 H   0  0  0  0  0  0  0  0  0  0  0  0
   -4.8936   -1.4871    1.8070 H   0  0  0  0  0  0  0  0  0  0  0  0
    5.8717   -0.2420   -1.0093 H   0  0  0  0  0  0  0  0  0  0  0  0
   -6.5028   -0.8737    0.0769 H   0  0  0  0  0  0  0  0  0  0  0  0
   -6.7331    2.9632   -1.3855 H   0  0  0  0  0  0  0  0  0  0  0  0
    6.6337    3.7420   -1.7180 H   0  0  0  0  0  0  0  0  0  0  0  0
   -3.4749    1.9637    1.2213 H   0  0  0  0  0  0  0  0  0  0  0  0
    4.7538    2.6535    1.9782 H   0  0  0  0  0  0  0  0  0  0  0  0
   -3.6284   -2.2012   -3.0324 H   0  0  0  0  0  0  0  0  0  0  0  0
   -2.2786   -3.3390   -3.1136 H   0  0  0  0  0  0  0  0  0  0  0  0
   -2.0383   -1.5908   -3.5077 H   0  0  0  0  0  0  0  0  0  0  0  0
   -4.6595    3.6551   -0.1761 H   0  0  0  0  0  0  0  0  0  0  0  0
    5.6528    4.4214    0.4750 H   0  0  0  0  0  0  0  0  0  0  0  0
  2  1  1  0
  3  1  2  0
  4  5  1  0
  5  3  1  0
  6  2  1  0
  7  4  1  0
  8  1  1  0
  9  2  2  0
 10  4  2  0
 11 21  2  0
 12 20  2  0
 13 14  1  0
 14  8  2  0
 15 18  1  0
 16 17  1  0
 17  7  1  0
 18  6  1  0
 19  8  1  0
 20 16  1  0
 21 15  1  0
 22 27  2  0
 23 28  2  0
 24 15  2  0
 25 16  2  0
 26 19  1  0
 27 24  1  0
 28 25  1  0
  5 13  2  0
 11 22  1  0
 12 23  1  0
  3 29  1  0
  6 30  1  0
  7 31  1  0
 13 32  1  0
 14 33  1  0
 17 34  1  0
 17 35  1  0
 18 36  1  0
 18 37  1  0
 20 38  1  0
 21 39  1  0
 22 40  1  0
 23 41  1  0
 24 42  1  0
 25 43  1  0
 26 44  1  0
 26 45  1  0
 26 46  1  0
 27 47  1  0
 28 48  1  0
M  END
$$$$
