
     RDKit          3D

 48 50  0  0  0  0  0  0  0  0999 V2000
    0.7818    0.1760   -0.1441 C   0  0  0  0  0  0  0  0  0  0  0  0
    1.7006    0.7865    0.8726 C   0  0  0  0  0  0  0  0  0  0  0  0
   -0.3360   -0.5127    0.3620 C   0  0  0  0  0  0  0  0  0  0  0  0
   -2.4339   -1.8119    0.0897 C   0  0  0  0  0  0  0  0  0  0  0  0
   -1.2653   -1.1039   -0.4995 C   0  0  0  0  0  0  0  0  0  0  0  0
    2.6186    1.7057    0.4233 N   0  0  0  0  0  0  0  0  0  0  0  0
   -3.5937   -1.7947   -0.6562 N   0  0  0  0  0  0  0  0  0  0  0  0
    0.9834    0.2354   -1.5392 C   0  0  0  0  0  0  0  0  0  0  0  0
    1.6093    0.4688    2.0547 O   0  0  0  0  0  0  0  0  0  0  0  0
   -2.3408   -2.3393    1.1910 O   0  0  0  0  0  0  0  0  0  0  0  0
    7.1210    1.3571   -0.0179 N   0  0  0  0  0  0  0  0  0  0  0  0
   -7.5743    0.2864    0.1563 N   0  0  0  0  0  0  0  0  0  0  0  0
   -1.0681   -1.0319   -1.8804 C   0  0  0  0  0  0  0  0  0  0  0  0
    0.0464   -0.3621   -2.3951 C   0  0  0  0  0  0  0  0  0  0  0  0
    4.9495    1.4850    1.0547 C   0  0  0  0  0  0  0  0  0  0  0  0
   -5.6889   -1.2135    0.4311 C   0  0  0  0  0  0  0  0  0  0  0  0
   -4.8349   -2.3155   -0.1235 C   0  0  0  0  0  0  0  0  0  0  0  0
    3.6652    2.2314    1.2672 C   0  0  0  0  0  0  0  0  0  0  0  0
    2.0848    0.9064   -2.0097 O   0  0  0  0  0  0  0  0  0  0  0  0
   -6.7799   -0.7189   -0.2759 C   0  0  0  0  0  0  0  0  0  0  0  0
    5.9526    1.9906    0.2348 C   0  0  0  0  0  0  0  0  0  0  0  0
    7.2991    0.1575    0.5763 C   0  0  0  0  0  0  0  0  0  0  0  0
   -7.2697    0.8259    1.3565 C   0  0  0  0  0  0  0  0  0  0  0  0
    5.1702    0.2362    1.6429 C   0  0  0  0  0  0  0  0  0  0  0  0
   -5.4051   -0.6241    1.6668 C   0  0  0  0  0  0  0  0  0  0  0  0
    2.5873    0.5014   -3.2817 C   0  0  0  0  0  0  0  0  0  0  0  0
    6.3632   -0.4388    1.4048 C   0  0  0  0  0  0  0  0  0  0  0  0
   -6.2068    0.4098    2.1403 C   0  0  0  0  0  0  0  0  0  0  0  0
   -0.4896   -0.5815    1.4394 H   0  0  0  0  0  0  0  0  0  0  0  0
    2.7122    1.8209   -0.5800 H   0  0  0  0  0  0  0  0  0  0  0  0
   -3.6652   -1.1461   -1.4274 H   0  0  0  0  0  0  0  0  0  0  0  0
   -1.7570   -1.5122   -2.5704 H   0  0  0  0  0  0  0  0  0  0  0  0
    0.1554   -0.3177   -3.4749 H   0  0  0  0  0  0  0  0  0  0  0  0
   -5.3482   -2.8214   -0.9488 H   0  0  0  0  0  0  0  0  0  0  0  0
   -4.6423   -3.0691    0.6484 H   0  0  0  0  0  0  0  0  0  0  0  0
    3.7873    3.2891    1.0090 H   0  0  0  0  0  0  0  0  0  0  0  0
    3.3725    2.1878    2.3223 H   0  0  0  0  0  0  0  0  0  0  0  0
   -7.0587   -1.1256   -1.2444 H   0  0  0  0  0  0  0  0  0  0  0  0
    5.8447    2.9505   -0.2637 H   0  0  0  0  0  0  0  0  0  0  0  0
    8.2454   -0.3301    0.3610 H   0  0  0  0  0  0  0  0  0  0  0  0
   -7.9238    1.6292    1.6830 H   0  0  0  0  0  0  0  0  0  0  0  0
    4.4103   -0.2108    2.2818 H   0  0  0  0  0  0  0  0  0  0  0  0
   -4.5592   -0.9688    2.2594 H   0  0  0  0  0  0  0  0  0  0  0  0
    2.6791   -0.5879   -3.3509 H   0  0  0  0  0  0  0  0  0  0  0  0
    3.5883    0.9292   -3.3947 H   0  0  0  0  0  0  0  0  0  0  0  0
    1.9629    0.8992   -4.0880 H   0  0  0  0  0  0  0  0  0  0  0  0
    6.5551   -1.4070    1.8528 H   0  0  0  0  0  0  0  0  0  0  0  0
   -6.0048    0.8791    3.0965 H   0  0  0  0  0  0  0  0  0  0  0  0
  2  1  1  0
  3  1  2  0
  4  5  1  0
  5  3  1  0
  6  2  1  0
  7  4  1  0
  8  1  1  0
  9  2  2  0
 10  4  2  0
 11 21  2  0
 12 20  2  0
 13 14  1  0
 14  8  2  0
 15 18  1  0
 16 17  1  0
 17  7  1  0
 18  6  1  0
 19  8  1  0
 20 16  1  0
 21 15  1  0
 22 27  2  0
 23 28  2  0
 24 15  2  0
 25 16  2  0
 26 19  1  0
 27 24  1  0
 28 25  1  0
  5 13  2  0
 11 22  1  0
 12 23  1  0
  3 29  1  0
  6 30  1  0
  7 31  1  0
 13 32  1  0
 14 33  1  0
 17 34  1  0
 17 35  1  0
 18 36  1  0
 18 37  1  0
 20 38  1  0
 21 39  1  0
 22 40  1  0
 23 41  1  0
 24 42  1  0
 25 43  1  0
 26 44  1  0
 26 45  1  0
 26 46  1  0
 27 47  1  0
 28 48  1  0
M  END
$$$$
