
     RDKit          3D

 48 50  0  0  0  0  0  0  0  0999 V2000
    0.8742   -1.2791    0.0104 C   0  0  0  0  0  0  0  0  0  0  0  0
    2.0574   -1.0553    0.9025 C   0  0  0  0  0  0  0  0  0  0  0  0
   -0.3865   -1.2685    0.6343 C   0  0  0  0  0  0  0  0  0  0  0  0
   -2.8625   -1.4450    0.5975 C   0  0  0  0  0  0  0  0  0  0  0  0
   -1.5550   -1.4495   -0.1113 C   0  0  0  0  0  0  0  0  0  0  0  0
    3.2885   -1.4352    0.4223 N   0  0  0  0  0  0  0  0  0  0  0  0
   -3.9422   -0.9773   -0.1214 N   0  0  0  0  0  0  0  0  0  0  0  0
    0.9569   -1.4660   -1.3855 C   0  0  0  0  0  0  0  0  0  0  0  0
    1.9039   -0.5554    2.0126 O   0  0  0  0  0  0  0  0  0  0  0  0
   -2.9332   -1.8189    1.7614 O   0  0  0  0  0  0  0  0  0  0  0  0
    6.6924    1.1897   -0.9818 N   0  0  0  0  0  0  0  0  0  0  0  0
   -5.0558    2.3910    2.5294 N   0  0  0  0  0  0  0  0  0  0  0  0
   -1.4677   -1.6665   -1.4885 C   0  0  0  0  0  0  0  0  0  0  0  0
   -0.2196   -1.6749   -2.1196 C   0  0  0  0  0  0  0  0  0  0  0  0
    5.1223    0.1474    0.5453 C   0  0  0  0  0  0  0  0  0  0  0  0
   -5.4472    0.6267    0.9134 C   0  0  0  0  0  0  0  0  0  0  0  0
   -5.2342   -0.8009    0.5050 C   0  0  0  0  0  0  0  0  0  0  0  0
    4.5172   -1.1070    1.1047 C   0  0  0  0  0  0  0  0  0  0  0  0
    2.2012   -1.4675   -1.9649 O   0  0  0  0  0  0  0  0  0  0  0  0
   -4.9149    1.1141    2.1037 C   0  0  0  0  0  0  0  0  0  0  0  0
    6.1251    0.0990   -0.4173 C   0  0  0  0  0  0  0  0  0  0  0  0
    6.2368    2.3912   -0.5654 C   0  0  0  0  0  0  0  0  0  0  0  0
   -5.7530    3.2256    1.7311 C   0  0  0  0  0  0  0  0  0  0  0  0
    4.6723    1.4106    0.9401 C   0  0  0  0  0  0  0  0  0  0  0  0
   -6.1553    1.5252    0.1096 C   0  0  0  0  0  0  0  0  0  0  0  0
    2.2689   -1.1679   -3.3567 C   0  0  0  0  0  0  0  0  0  0  0  0
    5.2385    2.5517    0.3810 C   0  0  0  0  0  0  0  0  0  0  0  0
   -6.3145    2.8446    0.5241 C   0  0  0  0  0  0  0  0  0  0  0  0
   -0.4581   -1.1181    1.7120 H   0  0  0  0  0  0  0  0  0  0  0  0
    3.3433   -1.7036   -0.5543 H   0  0  0  0  0  0  0  0  0  0  0  0
   -3.7736   -0.4666   -0.9764 H   0  0  0  0  0  0  0  0  0  0  0  0
   -2.3577   -1.8631   -2.0807 H   0  0  0  0  0  0  0  0  0  0  0  0
   -0.1951   -1.8682   -3.1881 H   0  0  0  0  0  0  0  0  0  0  0  0
   -5.3440   -1.4664    1.3687 H   0  0  0  0  0  0  0  0  0  0  0  0
   -5.9896   -1.1019   -0.2296 H   0  0  0  0  0  0  0  0  0  0  0  0
    5.1987   -1.9544    0.9707 H   0  0  0  0  0  0  0  0  0  0  0  0
    4.3444   -0.9973    2.1814 H   0  0  0  0  0  0  0  0  0  0  0  0
   -4.3387    0.4717    2.7674 H   0  0  0  0  0  0  0  0  0  0  0  0
    6.5144   -0.8489   -0.7792 H   0  0  0  0  0  0  0  0  0  0  0  0
    6.7096    3.2517   -1.0296 H   0  0  0  0  0  0  0  0  0  0  0  0
   -5.8505    4.2429    2.0989 H   0  0  0  0  0  0  0  0  0  0  0  0
    3.8773    1.5032    1.6783 H   0  0  0  0  0  0  0  0  0  0  0  0
   -6.5882    1.2045   -0.8342 H   0  0  0  0  0  0  0  0  0  0  0  0
    3.3172   -0.9744   -3.6040 H   0  0  0  0  0  0  0  0  0  0  0  0
    1.9393   -2.0247   -3.9526 H   0  0  0  0  0  0  0  0  0  0  0  0
    1.6955   -0.2680   -3.6044 H   0  0  0  0  0  0  0  0  0  0  0  0
    4.9060    3.5405    0.6755 H   0  0  0  0  0  0  0  0  0  0  0  0
   -6.8644    3.5592   -0.0779 H   0  0  0  0  0  0  0  0  0  0  0  0
  2  1  1  0
  3  1  2  0
  4  5  1  0
  5  3  1  0
  6  2  1  0
  7  4  1  0
  8  1  1  0
  9  2  2  0
 10  4  2  0
 11 21  2  0
 12 20  2  0
 13 14  1  0
 14  8  2  0
 15 18  1  0
 16 17  1  0
 17  7  1  0
 18  6  1  0
 19  8  1  0
 20 16  1  0
 21 15  1  0
 22 27  2  0
 23 28  2  0
 24 15  2  0
 25 16  2  0
 26 19  1  0
 27 24  1  0
 28 25  1  0
  5 13  2  0
 11 22  1  0
 12 23  1  0
  3 29  1  0
  6 30  1  0
  7 31  1  0
 13 32  1  0
 14 33  1  0
 17 34  1  0
 17 35  1  0
 18 36  1  0
 18 37  1  0
 20 38  1  0
 21 39  1  0
 22 40  1  0
 23 41  1  0
 24 42  1  0
 25 43  1  0
 26 44  1  0
 26 45  1  0
 26 46  1  0
 27 47  1  0
 28 48  1  0
M  END
$$$$
