
     RDKit          3D

 48 50  0  0  0  0  0  0  0  0999 V2000
    0.7580   -0.0082   -0.4199 C   0  0  0  0  0  0  0  0  0  0  0  0
    1.6527    1.0859    0.0894 C   0  0  0  0  0  0  0  0  0  0  0  0
   -0.4240   -0.2228    0.3186 C   0  0  0  0  0  0  0  0  0  0  0  0
   -2.6037   -1.4540    0.6878 C   0  0  0  0  0  0  0  0  0  0  0  0
   -1.3429   -1.2028   -0.0649 C   0  0  0  0  0  0  0  0  0  0  0  0
    2.7397    1.4304   -0.6754 N   0  0  0  0  0  0  0  0  0  0  0  0
   -3.1103   -0.4006    1.4182 N   0  0  0  0  0  0  0  0  0  0  0  0
    1.0301   -0.8131   -1.5479 C   0  0  0  0  0  0  0  0  0  0  0  0
    1.3926    1.6419    1.1535 O   0  0  0  0  0  0  0  0  0  0  0  0
   -3.1534   -2.5471    0.6105 O   0  0  0  0  0  0  0  0  0  0  0  0
    7.2140    0.8508   -0.0397 N   0  0  0  0  0  0  0  0  0  0  0  0
   -7.0678   -0.1835   -0.5817 N   0  0  0  0  0  0  0  0  0  0  0  0
   -1.0672   -1.9947   -1.1810 C   0  0  0  0  0  0  0  0  0  0  0  0
    0.1053   -1.7998   -1.9176 C   0  0  0  0  0  0  0  0  0  0  0  0
    4.9487    1.6447    0.3060 C   0  0  0  0  0  0  0  0  0  0  0  0
   -5.4805    0.0969    1.2301 C   0  0  0  0  0  0  0  0  0  0  0  0
   -4.3937   -0.4952    2.0778 C   0  0  0  0  0  0  0  0  0  0  0  0
    3.7460    2.3644   -0.2290 C   0  0  0  0  0  0  0  0  0  0  0  0
    2.1950   -0.5838   -2.2365 O   0  0  0  0  0  0  0  0  0  0  0  0
   -6.0940   -0.6543    0.2316 C   0  0  0  0  0  0  0  0  0  0  0  0
    6.1039    1.5025   -0.4553 C   0  0  0  0  0  0  0  0  0  0  0  0
    7.1710    0.3107    1.1974 C   0  0  0  0  0  0  0  0  0  0  0  0
   -7.4451    1.0990   -0.3978 C   0  0  0  0  0  0  0  0  0  0  0  0
    4.9435    1.0651    1.5781 C   0  0  0  0  0  0  0  0  0  0  0  0
   -5.8922    1.4241    1.3817 C   0  0  0  0  0  0  0  0  0  0  0  0
    2.5777   -1.5305   -3.2303 C   0  0  0  0  0  0  0  0  0  0  0  0
    6.0708    0.3893    2.0346 C   0  0  0  0  0  0  0  0  0  0  0  0
   -6.8922    1.9343    0.5585 C   0  0  0  0  0  0  0  0  0  0  0  0
   -0.6017    0.3723    1.2114 H   0  0  0  0  0  0  0  0  0  0  0  0
    2.9446    0.8572   -1.4871 H   0  0  0  0  0  0  0  0  0  0  0  0
   -2.7385    0.5279    1.2757 H   0  0  0  0  0  0  0  0  0  0  0  0
   -1.7694   -2.7697   -1.4864 H   0  0  0  0  0  0  0  0  0  0  0  0
    0.2600   -2.4399   -2.7811 H   0  0  0  0  0  0  0  0  0  0  0  0
   -4.6266   -1.5367    2.3273 H   0  0  0  0  0  0  0  0  0  0  0  0
   -4.3110    0.0507    3.0243 H   0  0  0  0  0  0  0  0  0  0  0  0
    4.0179    2.9811   -1.0927 H   0  0  0  0  0  0  0  0  0  0  0  0
    3.3401    3.0376    0.5344 H   0  0  0  0  0  0  0  0  0  0  0  0
   -5.8062   -1.6881    0.0496 H   0  0  0  0  0  0  0  0  0  0  0  0
    6.1761    1.9194   -1.4564 H   0  0  0  0  0  0  0  0  0  0  0  0
    8.0742   -0.2059    1.5087 H   0  0  0  0  0  0  0  0  0  0  0  0
   -8.2287    1.4502   -1.0628 H   0  0  0  0  0  0  0  0  0  0  0  0
    4.0602    1.1375    2.2100 H   0  0  0  0  0  0  0  0  0  0  0  0
   -5.4424    2.0624    2.1376 H   0  0  0  0  0  0  0  0  0  0  0  0
    2.6481   -2.5401   -2.8123 H   0  0  0  0  0  0  0  0  0  0  0  0
    3.5721   -1.2494   -3.5904 H   0  0  0  0  0  0  0  0  0  0  0  0
    1.8937   -1.4980   -4.0842 H   0  0  0  0  0  0  0  0  0  0  0  0
    6.0884   -0.0663    3.0181 H   0  0  0  0  0  0  0  0  0  0  0  0
   -7.2327    2.9586    0.6594 H   0  0  0  0  0  0  0  0  0  0  0  0
  2  1  1  0
  3  1  2  0
  4  5  1  0
  5  3  1  0
  6  2  1  0
  7  4  1  0
  8  1  1  0
  9  2  2  0
 10  4  2  0
 11 21  2  0
 12 20  2  0
 13 14  1  0
 14  8  2  0
 15 18  1  0
 16 17  1  0
 17  7  1  0
 18  6  1  0
 19  8  1  0
 20 16  1  0
 21 15  1  0
 22 27  2  0
 23 28  2  0
 24 15  2  0
 25 16  2  0
 26 19  1  0
 27 24  1  0
 28 25  1  0
  5 13  2  0
 11 22  1  0
 12 23  1  0
  3 29  1  0
  6 30  1  0
  7 31  1  0
 13 32  1  0
 14 33  1  0
 17 34  1  0
 17 35  1  0
 18 36  1  0
 18 37  1  0
 20 38  1  0
 21 39  1  0
 22 40  1  0
 23 41  1  0
 24 42  1  0
 25 43  1  0
 26 44  1  0
 26 45  1  0
 26 46  1  0
 27 47  1  0
 28 48  1  0
M  END
$$$$
