
     RDKit          3D

 59 64  0  0  0  0  0  0  0  0999 V2000
   -2.6247   -0.0242    0.0235 C   0  0  2  0  0  0  0  0  0  0  0  0
   -1.3591   -0.7607    0.5373 C   0  0  0  0  0  0  0  0  0  0  0  0
   -0.0758   -0.1865    0.3713 C   0  0  0  0  0  0  0  0  0  0  0  0
    8.5200    1.6777   -0.8059 C   0  0  0  0  0  0  0  0  0  0  0  0
    1.1070   -0.8067    0.8148 C   0  0  0  0  0  0  0  0  0  0  0  0
    7.2162    0.9928   -0.6349 C   0  0  0  0  0  0  0  0  0  0  0  0
    2.4177   -0.1665    0.6203 C   0  0  0  0  0  0  0  0  0  0  0  0
   -3.5989    0.2905    1.1999 C   0  0  0  0  0  0  0  0  0  0  0  0
   -3.3677   -0.8788   -1.0486 C   0  0  0  0  0  0  0  0  0  0  0  0
   -2.3131    1.3527   -0.6604 C   0  0  0  0  0  0  0  0  0  0  0  0
    6.1995    1.6660    0.0544 C   0  0  0  0  0  0  0  0  0  0  0  0
    3.4503   -0.8274   -0.0669 C   0  0  0  0  0  0  0  0  0  0  0  0
    4.9440    1.0667    0.2465 C   0  0  0  0  0  0  0  0  0  0  0  0
    4.7083   -0.2301   -0.2616 C   0  0  0  0  0  0  0  0  0  0  0  0
   -4.8827    0.9759    0.6985 C   0  0  2  0  0  0  0  0  0  0  0  0
   -4.6536   -0.1827   -1.5297 C   0  0  1  0  0  0  0  0  0  0  0  0
   -3.5877    2.0566   -1.1573 C   0  0  2  0  0  0  0  0  0  0  0  0
   -1.4213   -2.0201    1.1849 C   0  0  0  0  0  0  0  0  0  0  0  0
    8.8004    2.7898   -0.3985 O   0  0  0  0  0  0  0  0  0  0  0  0
    6.9803   -0.2896   -1.1379 C   0  0  0  0  0  0  0  0  0  0  0  0
    0.9993   -2.0462    1.4451 C   0  0  0  0  0  0  0  0  0  0  0  0
    2.6720    1.1200    1.1152 C   0  0  0  0  0  0  0  0  0  0  0  0
    5.7346   -0.8949   -0.9517 C   0  0  0  0  0  0  0  0  0  0  0  0
    3.9169    1.7292    0.9325 C   0  0  0  0  0  0  0  0  0  0  0  0
   -0.2472   -2.6451    1.6285 C   0  0  0  0  0  0  0  0  0  0  0  0
   -5.5782    0.0651   -0.3265 C   0  0  0  0  0  0  0  0  0  0  0  0
   -4.5214    2.3096    0.0329 C   0  0  0  0  0  0  0  0  0  0  0  0
   -4.2939    1.1586   -2.1807 C   0  0  0  0  0  0  0  0  0  0  0  0
    9.4159    0.9362   -1.4811 O   0  0  0  0  0  0  0  0  0  0  0  0
   -2.6628   -2.5770    1.3474 O   0  0  0  0  0  0  0  0  0  0  0  0
   -2.7637   -3.8331    2.0037 C   0  0  0  0  0  0  0  0  0  0  0  0
    0.0386    0.7721   -0.1283 H   0  0  0  0  0  0  0  0  0  0  0  0
   -3.0988    0.9334    1.9368 H   0  0  0  0  0  0  0  0  0  0  0  0
   -3.8929   -0.6137    1.7415 H   0  0  0  0  0  0  0  0  0  0  0  0
   -2.7039   -1.0639   -1.9040 H   0  0  0  0  0  0  0  0  0  0  0  0
   -3.6454   -1.8655   -0.6656 H   0  0  0  0  0  0  0  0  0  0  0  0
   -1.6410    1.2095   -1.5172 H   0  0  0  0  0  0  0  0  0  0  0  0
   -1.8007    2.0213    0.0444 H   0  0  0  0  0  0  0  0  0  0  0  0
    6.3902    2.6654    0.4430 H   0  0  0  0  0  0  0  0  0  0  0  0
    3.2640   -1.8228   -0.4679 H   0  0  0  0  0  0  0  0  0  0  0  0
   -5.5548    1.1586    1.5446 H   0  0  0  0  0  0  0  0  0  0  0  0
   -5.1635   -0.8201   -2.2609 H   0  0  0  0  0  0  0  0  0  0  0  0
   -3.3226    3.0109   -1.6262 H   0  0  0  0  0  0  0  0  0  0  0  0
    7.7565   -0.8279   -1.6763 H   0  0  0  0  0  0  0  0  0  0  0  0
    1.8883   -2.5543    1.8125 H   0  0  0  0  0  0  0  0  0  0  0  0
    1.8988    1.6577    1.6613 H   0  0  0  0  0  0  0  0  0  0  0  0
    5.5712   -1.8936   -1.3519 H   0  0  0  0  0  0  0  0  0  0  0  0
    4.0760    2.7276    1.3347 H   0  0  0  0  0  0  0  0  0  0  0  0
   -0.2651   -3.6075    2.1289 H   0  0  0  0  0  0  0  0  0  0  0  0
   -6.5127    0.5298   -0.6643 H   0  0  0  0  0  0  0  0  0  0  0  0
   -5.8489   -0.8892    0.1419 H   0  0  0  0  0  0  0  0  0  0  0  0
   -5.4315    2.8204   -0.3047 H   0  0  0  0  0  0  0  0  0  0  0  0
   -4.0351    2.9728    0.7587 H   0  0  0  0  0  0  0  0  0  0  0  0
   -3.6437    0.9932   -3.0486 H   0  0  0  0  0  0  0  0  0  0  0  0
   -5.2006    1.6519   -2.5519 H   0  0  0  0  0  0  0  0  0  0  0  0
   10.2123    1.5066   -1.5163 H   0  0  0  0  0  0  0  0  0  0  0  0
   -2.2410   -4.6149    1.4432 H   0  0  0  0  0  0  0  0  0  0  0  0
   -2.4010   -3.7707    3.0349 H   0  0  0  0  0  0  0  0  0  0  0  0
   -3.8231   -4.1048    2.0413 H   0  0  0  0  0  0  0  0  0  0  0  0
  1  2  1  1
  3  2  2  0
  4  6  1  0
  5  3  1  0
  6 11  2  0
  7  5  1  0
  8  1  1  0
  9  1  1  0
 10  1  1  0
 11 13  1  0
 12  7  1  0
 13 24  2  0
 14 12  2  0
 15  8  1  0
 16  9  1  0
 17 10  1  0
 18  2  1  0
 19  4  2  0
 20 23  2  0
 21 25  1  0
 22  7  2  0
 23 14  1  0
 24 22  1  0
 25 18  2  0
 26 16  1  0
 27 17  1  0
 28 17  1  0
 29  4  1  0
 30 18  1  0
 31 30  1  0
 28 16  1  0
 27 15  1  0
 26 15  1  0
 21  5  2  0
 13 14  1  0
  6 20  1  0
  3 32  1  0
  8 33  1  0
  8 34  1  0
  9 35  1  0
  9 36  1  0
 10 37  1  0
 10 38  1  0
 11 39  1  0
 12 40  1  0
 15 41  1  1
 16 42  1  6
 17 43  1  6
 20 44  1  0
 21 45  1  0
 22 46  1  0
 23 47  1  0
 24 48  1  0
 25 49  1  0
 26 50  1  0
 26 51  1  0
 27 52  1  0
 27 53  1  0
 28 54  1  0
 28 55  1  0
 29 56  1  0
 31 57  1  0
 31 58  1  0
 31 59  1  0
M  END
$$$$
