
     RDKit          3D

 31 36  0  0  0  0  0  0  0  0999 V2000
   -3.4376   -0.7030    0.3014 C   0  0  0  0  0  0  0  0  0  0  0  0
   -2.4001    0.2351   -0.2090 C   0  0  0  0  0  0  0  0  0  0  0  0
   -1.0622   -0.0852   -0.1014 C   0  0  0  0  0  0  0  0  0  0  0  0
    7.7739    0.2133    0.1444 C   0  0  0  0  0  0  0  0  0  0  0  0
   -0.0783    0.7642   -0.5651 C   0  0  0  0  0  0  0  0  0  0  0  0
    6.3518    0.5399    0.0306 C   0  0  0  0  0  0  0  0  0  0  0  0
    1.3342    0.4278   -0.4526 C   0  0  0  0  0  0  0  0  0  0  0  0
   -4.2457   -0.0015    1.3684 C   0  0  0  0  0  0  0  0  0  0  0  0
   -2.8260   -1.9793    0.8042 C   0  0  0  0  0  0  0  0  0  0  0  0
   -4.4079   -1.0420   -0.8214 C   0  0  0  0  0  0  0  0  0  0  0  0
    5.3947   -0.4598   -0.1244 C   0  0  0  0  0  0  0  0  0  0  0  0
    2.2671    1.4419   -0.2989 C   0  0  0  0  0  0  0  0  0  0  0  0
    4.0446   -0.1506   -0.2326 C   0  0  0  0  0  0  0  0  0  0  0  0
    3.6191    1.1589   -0.1888 C   0  0  0  0  0  0  0  0  0  0  0  0
   -5.3076   -0.8970    1.9293 C   0  0  0  0  0  0  0  0  0  0  0  0
   -3.9328   -2.8765    1.2947 C   0  0  0  0  0  0  0  0  0  0  0  0
   -5.5064   -1.8973   -0.2747 C   0  0  0  0  0  0  0  0  0  0  0  0
   -2.8129    1.4188   -0.7850 C   0  0  0  0  0  0  0  0  0  0  0  0
    8.6020    1.1554    0.2835 O   0  0  0  0  0  0  0  0  0  0  0  0
    5.9211    1.8545    0.0742 C   0  0  0  0  0  0  0  0  0  0  0  0
   -0.4853    1.9667   -1.1508 C   0  0  0  0  0  0  0  0  0  0  0  0
    1.7614   -0.8899   -0.4967 C   0  0  0  0  0  0  0  0  0  0  0  0
    4.5726    2.1309   -0.0360 C   0  0  0  0  0  0  0  0  0  0  0  0
    3.1272   -1.1721   -0.3853 C   0  0  0  0  0  0  0  0  0  0  0  0
   -1.8313    2.2885   -1.2588 C   0  0  0  0  0  0  0  0  0  0  0  0
   -4.6836   -2.1834    2.4176 C   0  0  0  0  0  0  0  0  0  0  0  0
   -6.3043   -1.2373    0.8199 C   0  0  0  0  0  0  0  0  0  0  0  0
   -4.9014   -3.2157    0.1744 C   0  0  0  0  0  0  0  0  0  0  0  0
    8.1498   -1.1219    0.0942 O   0  0  0  0  0  0  0  0  0  0  0  0
   -4.1674    1.7094   -0.8771 O   0  0  0  0  0  0  0  0  0  0  0  0
   -4.5286    2.9395   -1.4783 C   0  0  0  0  0  0  0  0  0  0  0  0
  2  1  1  0
  3  2  2  0
  4  6  1  0
  5  3  1  0
  6 11  2  0
  7  5  1  0
  8  1  1  0
  9  1  1  0
 10  1  1  0
 11 13  1  0
 12  7  1  0
 13 24  2  0
 14 12  2  0
 15  8  1  0
 16  9  1  0
 17 10  1  0
 18  2  1  0
 19  4  2  0
 20 23  2  0
 21 25  1  0
 22  7  2  0
 23 14  1  0
 24 22  1  0
 25 18  2  0
 26 16  1  0
 27 17  1  0
 28 17  1  0
 29  4  1  0
 30 18  1  0
 31 30  1  0
 28 16  1  0
 27 15  1  0
 26 15  1  0
 21  5  2  0
 13 14  1  0
  6 20  1  0
M  END
