
     RDKit          3D

 59 64  0  0  0  0  0  0  0  0999 V2000
   -2.5672    0.3768   -0.2764 C   0  0  2  0  0  0  0  0  0  0  0  0
   -1.3801    0.4716    0.7186 C   0  0  0  0  0  0  0  0  0  0  0  0
   -0.1099   -0.0504    0.3744 C   0  0  0  0  0  0  0  0  0  0  0  0
    8.5282   -1.8673   -0.7312 C   0  0  0  0  0  0  0  0  0  0  0  0
    1.0032    0.0070    1.2335 C   0  0  0  0  0  0  0  0  0  0  0  0
    7.1976   -1.3482   -0.3331 C   0  0  0  0  0  0  0  0  0  0  0  0
    2.3027   -0.5532    0.8295 C   0  0  0  0  0  0  0  0  0  0  0  0
   -2.1967   -0.3292   -1.6273 C   0  0  0  0  0  0  0  0  0  0  0  0
   -3.0845    1.7969   -0.6607 C   0  0  0  0  0  0  0  0  0  0  0  0
   -3.7382   -0.4520    0.3351 C   0  0  0  0  0  0  0  0  0  0  0  0
    6.0543   -2.1571   -0.3306 C   0  0  0  0  0  0  0  0  0  0  0  0
    3.4617    0.2415    0.8218 C   0  0  0  0  0  0  0  0  0  0  0  0
    4.8078   -1.6336    0.0522 C   0  0  0  0  0  0  0  0  0  0  0  0
    4.7110   -0.2781    0.4388 C   0  0  0  0  0  0  0  0  0  0  0  0
   -3.3943   -0.4075   -2.5898 C   0  0  2  0  0  0  0  0  0  0  0  0
   -4.2955    1.7166   -1.6074 C   0  0  1  0  0  0  0  0  0  0  0  0
   -4.9434   -0.5119   -0.6205 C   0  0  2  0  0  0  0  0  0  0  0  0
   -1.5033    1.0741    1.9957 C   0  0  0  0  0  0  0  0  0  0  0  0
    9.5640   -1.2287   -0.7569 O   0  0  0  0  0  0  0  0  0  0  0  0
    7.0981   -0.0072    0.0485 C   0  0  0  0  0  0  0  0  0  0  0  0
    0.8372    0.6103    2.4800 C   0  0  0  0  0  0  0  0  0  0  0  0
    2.4199   -1.8949    0.4414 C   0  0  0  0  0  0  0  0  0  0  0  0
    5.8638    0.5229    0.4312 C   0  0  0  0  0  0  0  0  0  0  0  0
    3.6538   -2.4292    0.0587 C   0  0  0  0  0  0  0  0  0  0  0  0
   -0.3987    1.1362    2.8570 C   0  0  0  0  0  0  0  0  0  0  0  0
   -3.8819    1.0121   -2.9055 C   0  0  0  0  0  0  0  0  0  0  0  0
   -4.5254   -1.2018   -1.9250 C   0  0  0  0  0  0  0  0  0  0  0  0
   -5.4197    0.9173   -0.9282 C   0  0  0  0  0  0  0  0  0  0  0  0
    8.5012   -3.1659   -1.0797 O   0  0  0  0  0  0  0  0  0  0  0  0
   -2.7324    1.5788    2.3310 O   0  0  0  0  0  0  0  0  0  0  0  0
   -2.8923    2.1888    3.6042 C   0  0  0  0  0  0  0  0  0  0  0  0
    0.0510   -0.5136   -0.5957 H   0  0  0  0  0  0  0  0  0  0  0  0
   -1.8371   -1.3496   -1.4382 H   0  0  0  0  0  0  0  0  0  0  0  0
   -1.3840    0.2122   -2.1301 H   0  0  0  0  0  0  0  0  0  0  0  0
   -3.3853    2.3751    0.2182 H   0  0  0  0  0  0  0  0  0  0  0  0
   -2.2785    2.3713   -1.1373 H   0  0  0  0  0  0  0  0  0  0  0  0
   -4.0852   -0.0325    1.2843 H   0  0  0  0  0  0  0  0  0  0  0  0
   -3.3952   -1.4702    0.5636 H   0  0  0  0  0  0  0  0  0  0  0  0
    6.1307   -3.2007   -0.6282 H   0  0  0  0  0  0  0  0  0  0  0  0
    3.3848    1.2893    1.1091 H   0  0  0  0  0  0  0  0  0  0  0  0
   -3.0900   -0.9064   -3.5169 H   0  0  0  0  0  0  0  0  0  0  0  0
   -4.6494    2.7283   -1.8361 H   0  0  0  0  0  0  0  0  0  0  0  0
   -5.7558   -1.0776   -0.1506 H   0  0  0  0  0  0  0  0  0  0  0  0
    7.9797    0.6310    0.0497 H   0  0  0  0  0  0  0  0  0  0  0  0
    1.6696    0.6658    3.1783 H   0  0  0  0  0  0  0  0  0  0  0  0
    1.5449   -2.5426    0.4451 H   0  0  0  0  0  0  0  0  0  0  0  0
    5.8097    1.5697    0.7237 H   0  0  0  0  0  0  0  0  0  0  0  0
    3.7034   -3.4764   -0.2325 H   0  0  0  0  0  0  0  0  0  0  0  0
   -0.4648    1.5888    3.8407 H   0  0  0  0  0  0  0  0  0  0  0  0
   -4.7305    0.9730   -3.5994 H   0  0  0  0  0  0  0  0  0  0  0  0
   -3.0881    1.5805   -3.4055 H   0  0  0  0  0  0  0  0  0  0  0  0
   -5.3838   -1.2745   -2.6041 H   0  0  0  0  0  0  0  0  0  0  0  0
   -4.1949   -2.2273   -1.7191 H   0  0  0  0  0  0  0  0  0  0  0  0
   -6.3003    0.8840   -1.5815 H   0  0  0  0  0  0  0  0  0  0  0  0
   -5.7294    1.4173   -0.0023 H   0  0  0  0  0  0  0  0  0  0  0  0
    9.4322   -3.3642   -1.3138 H   0  0  0  0  0  0  0  0  0  0  0  0
   -2.2502    3.0700    3.7038 H   0  0  0  0  0  0  0  0  0  0  0  0
   -3.9306    2.5252    3.6840 H   0  0  0  0  0  0  0  0  0  0  0  0
   -2.7138    1.4713    4.4116 H   0  0  0  0  0  0  0  0  0  0  0  0
  1  2  1  1
  3  2  2  0
  4  6  1  0
  5  3  1  0
  6 11  2  0
  7  5  1  0
  8  1  1  0
  9  1  1  0
 10  1  1  0
 11 13  1  0
 12  7  1  0
 13 24  2  0
 14 12  2  0
 15  8  1  0
 16  9  1  0
 17 10  1  0
 18  2  1  0
 19  4  2  0
 20 23  2  0
 21 25  1  0
 22  7  2  0
 23 14  1  0
 24 22  1  0
 25 18  2  0
 26 16  1  0
 27 17  1  0
 28 17  1  0
 29  4  1  0
 30 18  1  0
 31 30  1  0
 28 16  1  0
 27 15  1  0
 26 15  1  0
 21  5  2  0
 13 14  1  0
  6 20  1  0
  3 32  1  0
  8 33  1  0
  8 34  1  0
  9 35  1  0
  9 36  1  0
 10 37  1  0
 10 38  1  0
 11 39  1  0
 12 40  1  0
 15 41  1  6
 16 42  1  6
 17 43  1  1
 20 44  1  0
 21 45  1  0
 22 46  1  0
 23 47  1  0
 24 48  1  0
 25 49  1  0
 26 50  1  0
 26 51  1  0
 27 52  1  0
 27 53  1  0
 28 54  1  0
 28 55  1  0
 29 56  1  0
 31 57  1  0
 31 58  1  0
 31 59  1  0
M  END
$$$$
