
     RDKit          3D

 59 64  0  0  0  0  0  0  0  0999 V2000
   -2.5063    0.1641    0.0495 C   0  0  2  0  0  0  0  0  0  0  0  0
   -1.2704    1.0701    0.2945 C   0  0  0  0  0  0  0  0  0  0  0  0
    0.0329    0.6044   -0.0034 C   0  0  0  0  0  0  0  0  0  0  0  0
    8.1342   -2.4769   -0.7597 C   0  0  0  0  0  0  0  0  0  0  0  0
    1.1906    1.3792    0.1966 C   0  0  0  0  0  0  0  0  0  0  0  0
    6.8007   -1.8994   -0.4654 C   0  0  0  0  0  0  0  0  0  0  0  0
    2.5243    0.8468   -0.1257 C   0  0  0  0  0  0  0  0  0  0  0  0
   -2.1429   -1.2458   -0.5342 C   0  0  0  0  0  0  0  0  0  0  0  0
   -3.4792    0.8180   -0.9789 C   0  0  0  0  0  0  0  0  0  0  0  0
   -3.2685   -0.1059    1.3830 C   0  0  0  0  0  0  0  0  0  0  0  0
    6.3636   -0.7032   -1.0481 C   0  0  0  0  0  0  0  0  0  0  0  0
    2.9811   -0.3524    0.4475 C   0  0  0  0  0  0  0  0  0  0  0  0
    5.0934   -0.1827   -0.7477 C   0  0  0  0  0  0  0  0  0  0  0  0
    4.2517   -0.8762    0.1504 C   0  0  0  0  0  0  0  0  0  0  0  0
   -3.3889   -2.1184   -0.7642 C   0  0  2  0  0  0  0  0  0  0  0  0
   -4.7349   -0.0463   -1.1924 C   0  0  1  0  0  0  0  0  0  0  0  0
   -4.5262   -0.9616    1.1481 C   0  0  2  0  0  0  0  0  0  0  0  0
   -1.3803    2.3832    0.8169 C   0  0  0  0  0  0  0  0  0  0  0  0
    8.5829   -3.5082   -0.2946 O   0  0  0  0  0  0  0  0  0  0  0  0
    5.9658   -2.5823    0.4236 C   0  0  0  0  0  0  0  0  0  0  0  0
    1.0355    2.6663    0.7106 C   0  0  0  0  0  0  0  0  0  0  0  0
    3.3750    1.5201   -1.0131 C   0  0  0  0  0  0  0  0  0  0  0  0
    4.7012   -2.0738    0.7287 C   0  0  0  0  0  0  0  0  0  0  0  0
    4.6412    1.0137   -1.3213 C   0  0  0  0  0  0  0  0  0  0  0  0
   -0.2319    3.1620    1.0174 C   0  0  0  0  0  0  0  0  0  0  0  0
   -4.3235   -1.4127   -1.7546 C   0  0  0  0  0  0  0  0  0  0  0  0
   -4.1161   -2.3221    0.5707 C   0  0  0  0  0  0  0  0  0  0  0  0
   -5.4520   -0.2424    0.1534 C   0  0  0  0  0  0  0  0  0  0  0  0
    8.8473   -1.7347   -1.6252 O   0  0  0  0  0  0  0  0  0  0  0  0
   -2.6410    2.8352    1.1069 O   0  0  0  0  0  0  0  0  0  0  0  0
   -2.7882    4.1457    1.6357 C   0  0  0  0  0  0  0  0  0  0  0  0
    0.1814   -0.3893   -0.4184 H   0  0  0  0  0  0  0  0  0  0  0  0
   -1.6151   -1.1377   -1.4913 H   0  0  0  0  0  0  0  0  0  0  0  0
   -1.4680   -1.7790    0.1488 H   0  0  0  0  0  0  0  0  0  0  0  0
   -3.8079    1.8111   -0.6578 H   0  0  0  0  0  0  0  0  0  0  0  0
   -2.9640    0.9669   -1.9375 H   0  0  0  0  0  0  0  0  0  0  0  0
   -2.6041   -0.6112    2.0970 H   0  0  0  0  0  0  0  0  0  0  0  0
   -3.5824    0.8220    1.8707 H   0  0  0  0  0  0  0  0  0  0  0  0
    7.0129   -0.1708   -1.7399 H   0  0  0  0  0  0  0  0  0  0  0  0
    2.3359   -0.8815    1.1477 H   0  0  0  0  0  0  0  0  0  0  0  0
   -3.0880   -3.0904   -1.1712 H   0  0  0  0  0  0  0  0  0  0  0  0
   -5.4076    0.4533   -1.8988 H   0  0  0  0  0  0  0  0  0  0  0  0
   -5.0512   -1.1100    2.0986 H   0  0  0  0  0  0  0  0  0  0  0  0
    6.2950   -3.5126    0.8827 H   0  0  0  0  0  0  0  0  0  0  0  0
    1.9056    3.2944    0.8899 H   0  0  0  0  0  0  0  0  0  0  0  0
    3.0501    2.4456   -1.4848 H   0  0  0  0  0  0  0  0  0  0  0  0
    4.0681   -2.6220    1.4236 H   0  0  0  0  0  0  0  0  0  0  0  0
    5.2700    1.5641   -2.0181 H   0  0  0  0  0  0  0  0  0  0  0  0
   -0.2860    4.1688    1.4179 H   0  0  0  0  0  0  0  0  0  0  0  0
   -5.2131   -2.0282   -1.9364 H   0  0  0  0  0  0  0  0  0  0  0  0
   -3.8213   -1.2861   -2.7215 H   0  0  0  0  0  0  0  0  0  0  0  0
   -5.0025   -2.9514    0.4241 H   0  0  0  0  0  0  0  0  0  0  0  0
   -3.4646   -2.8500    1.2778 H   0  0  0  0  0  0  0  0  0  0  0  0
   -5.7585    0.7289    0.5606 H   0  0  0  0  0  0  0  0  0  0  0  0
   -6.3675   -0.8285    0.0058 H   0  0  0  0  0  0  0  0  0  0  0  0
    9.6870   -2.2312   -1.7216 H   0  0  0  0  0  0  0  0  0  0  0  0
   -2.4354    4.9005    0.9254 H   0  0  0  0  0  0  0  0  0  0  0  0
   -2.2838    4.2408    2.6027 H   0  0  0  0  0  0  0  0  0  0  0  0
   -3.8559    4.3200    1.8007 H   0  0  0  0  0  0  0  0  0  0  0  0
  1  2  1  1
  3  2  2  0
  4  6  1  0
  5  3  1  0
  6 11  2  0
  7  5  1  0
  8  1  1  0
  9  1  1  0
 10  1  1  0
 11 13  1  0
 12  7  1  0
 13 24  2  0
 14 12  2  0
 15  8  1  0
 16  9  1  0
 17 10  1  0
 18  2  1  0
 19  4  2  0
 20 23  2  0
 21 25  1  0
 22  7  2  0
 23 14  1  0
 24 22  1  0
 25 18  2  0
 26 16  1  0
 27 17  1  0
 28 17  1  0
 29  4  1  0
 30 18  1  0
 31 30  1  0
 28 16  1  0
 27 15  1  0
 26 15  1  0
 21  5  2  0
 13 14  1  0
  6 20  1  0
  3 32  1  0
  8 33  1  0
  8 34  1  0
  9 35  1  0
  9 36  1  0
 10 37  1  0
 10 38  1  0
 11 39  1  0
 12 40  1  0
 15 41  1  6
 16 42  1  6
 17 43  1  1
 20 44  1  0
 21 45  1  0
 22 46  1  0
 23 47  1  0
 24 48  1  0
 25 49  1  0
 26 50  1  0
 26 51  1  0
 27 52  1  0
 27 53  1  0
 28 54  1  0
 28 55  1  0
 29 56  1  0
 31 57  1  0
 31 58  1  0
 31 59  1  0
M  END
$$$$
