
     RDKit          3D

 34 33  0  0  0  0  0  0  0  0999 V2000
    2.4153    0.4329    0.0740 C   0  0  0  0  0  0  0  0  0  0  0  0
    1.2194   -0.4767   -0.1620 C   0  0  0  0  0  0  0  0  0  0  0  0
   -0.0034    0.3211   -0.2311 N   0  0  0  0  0  0  0  0  0  0  0  0
   -1.1747   -0.5261   -0.4474 C   0  0  0  0  0  0  0  0  0  0  0  0
   -2.4286    0.3329   -0.5029 C   0  0  0  0  0  0  0  0  0  0  0  0
    1.3843    1.7996   -0.6473 S   0  0  0  0  0  0  0  0  0  0  0  0
    0.3016    0.5129   -0.0982 C   0  0  0  0  0  0  0  0  0  0  0  0
    0.6699   -0.8270   -0.2350 C   0  0  0  0  0  0  0  0  0  0  0  0
   -0.9345    0.8638    0.4563 C   0  0  0  0  0  0  0  0  0  0  0  0
   -0.1971   -1.8310    0.1956 C   0  0  0  0  0  0  0  0  0  0  0  0
    2.4239    1.9254    0.3508 O   0  0  0  0  0  0  0  0  0  0  0  0
    0.5622    2.9259   -1.0376 O   0  0  0  0  0  0  0  0  0  0  0  0
    2.0707    1.2130   -1.9881 O   0  0  0  0  0  0  0  0  0  0  0  0
   -1.4296   -1.4857    0.7550 C   0  0  0  0  0  0  0  0  0  0  0  0
    1.8746   -1.1623   -0.7915 O   0  0  0  0  0  0  0  0  0  0  0  0
   -1.7888   -0.1466    0.8790 C   0  0  0  0  0  0  0  0  0  0  0  0
   -3.0046    0.1330    1.4264 O   0  0  0  0  0  0  0  0  0  0  0  0
    2.5223    1.1643   -0.7341 H   0  0  0  0  0  0  0  0  0  0  0  0
    2.3201    0.9773    1.0197 H   0  0  0  0  0  0  0  0  0  0  0  0
    3.3357   -0.1584    0.1174 H   0  0  0  0  0  0  0  0  0  0  0  0
    1.3687   -1.0239   -1.0998 H   0  0  0  0  0  0  0  0  0  0  0  0
    1.1577   -1.2066    0.6534 H   0  0  0  0  0  0  0  0  0  0  0  0
   -0.1173    0.8503    0.6332 H   0  0  0  0  0  0  0  0  0  0  0  0
   -1.0773   -1.0741   -1.3914 H   0  0  0  0  0  0  0  0  0  0  0  0
   -1.2765   -1.2570    0.3631 H   0  0  0  0  0  0  0  0  0  0  0  0
   -3.3085   -0.2955   -0.6746 H   0  0  0  0  0  0  0  0  0  0  0  0
   -2.5806    0.8756    0.4363 H   0  0  0  0  0  0  0  0  0  0  0  0
   -2.3724    1.0638   -1.3168 H   0  0  0  0  0  0  0  0  0  0  0  0
   -1.2137    1.9097    0.5509 H   0  0  0  0  0  0  0  0  0  0  0  0
    0.0582   -2.8827    0.1025 H   0  0  0  0  0  0  0  0  0  0  0  0
    2.4694    0.3410   -1.7633 H   0  0  0  0  0  0  0  0  0  0  0  0
   -2.1141   -2.2606    1.0919 H   0  0  0  0  0  0  0  0  0  0  0  0
    2.0030   -2.1251   -0.6869 H   0  0  0  0  0  0  0  0  0  0  0  0
   -3.1355    1.0965    1.4397 H   0  0  0  0  0  0  0  0  0  0  0  0
  1  2  1  0
  2  3  1  0
  3  4  1  0
  4  5  1  0
  7  6  1  0
  8  7  2  0
  9  7  1  0
 10  8  1  0
 11  6  2  0
 12  6  2  0
 13  6  1  0
 14 16  1  0
 15  8  1  0
 16  9  2  0
 10 14  2  0
 16 17  1  0
  1 18  1  0
  1 19  1  0
  1 20  1  0
  2 21  1  0
  2 22  1  0
  3 23  1  0
  4 24  1  0
  4 25  1  0
  5 26  1  0
  5 27  1  0
  5 28  1  0
  9 29  1  0
 10 30  1  0
 13 31  1  0
 14 32  1  0
 15 33  1  0
 17 34  1  0
M  END
$$$$
