
     RDKit          3D

 34 33  0  0  0  0  0  0  0  0999 V2000
   -2.4249    0.2620    0.4542 C   0  0  0  0  0  0  0  0  0  0  0  0
   -1.1572   -0.5653    0.3058 C   0  0  0  0  0  0  0  0  0  0  0  0
   -0.0086    0.3184    0.1161 N   0  0  0  0  0  0  0  0  0  0  0  0
    1.2263   -0.4477   -0.0406 C   0  0  0  0  0  0  0  0  0  0  0  0
    2.3979    0.5001   -0.2466 C   0  0  0  0  0  0  0  0  0  0  0  0
   -2.2111   -0.5200   -0.3323 S   0  0  0  0  0  0  0  0  0  0  0  0
   -0.5476   -0.0142   -0.0520 C   0  0  0  0  0  0  0  0  0  0  0  0
   -0.1084    1.2764   -0.3522 C   0  0  0  0  0  0  0  0  0  0  0  0
    0.3344   -0.9520    0.4980 C   0  0  0  0  0  0  0  0  0  0  0  0
    1.2195    1.6262   -0.1011 C   0  0  0  0  0  0  0  0  0  0  0  0
   -2.9054    0.5861   -0.9610 O   0  0  0  0  0  0  0  0  0  0  0  0
   -2.7105   -1.1419    0.8736 O   0  0  0  0  0  0  0  0  0  0  0  0
   -2.1008   -1.7008   -1.4243 O   0  0  0  0  0  0  0  0  0  0  0  0
    2.1055    0.6946    0.4449 C   0  0  0  0  0  0  0  0  0  0  0  0
   -0.8805    2.2664   -0.8908 O   0  0  0  0  0  0  0  0  0  0  0  0
    1.6529   -0.5873    0.7392 C   0  0  0  0  0  0  0  0  0  0  0  0
    2.4805   -1.5286    1.2729 O   0  0  0  0  0  0  0  0  0  0  0  0
   -2.6136    0.8641   -0.4411 H   0  0  0  0  0  0  0  0  0  0  0  0
   -3.2876   -0.3945    0.6064 H   0  0  0  0  0  0  0  0  0  0  0  0
   -2.3590    0.9370    1.3143 H   0  0  0  0  0  0  0  0  0  0  0  0
   -1.0227   -1.1741    1.2071 H   0  0  0  0  0  0  0  0  0  0  0  0
   -1.2687   -1.2415   -0.5498 H   0  0  0  0  0  0  0  0  0  0  0  0
   -0.1569    0.9026   -0.7065 H   0  0  0  0  0  0  0  0  0  0  0  0
    1.1549   -1.1218   -0.9019 H   0  0  0  0  0  0  0  0  0  0  0  0
    1.4126   -1.0539    0.8532 H   0  0  0  0  0  0  0  0  0  0  0  0
    2.5142    1.1775    0.6062 H   0  0  0  0  0  0  0  0  0  0  0  0
    2.2657    1.1049   -1.1502 H   0  0  0  0  0  0  0  0  0  0  0  0
    3.3275   -0.0679   -0.3549 H   0  0  0  0  0  0  0  0  0  0  0  0
    0.0029   -1.9574    0.7442 H   0  0  0  0  0  0  0  0  0  0  0  0
    1.5646    2.6311   -0.3342 H   0  0  0  0  0  0  0  0  0  0  0  0
   -2.6016   -2.4718   -1.0831 H   0  0  0  0  0  0  0  0  0  0  0  0
    3.1341    0.9882    0.6307 H   0  0  0  0  0  0  0  0  0  0  0  0
   -1.7889    1.9415   -1.0751 H   0  0  0  0  0  0  0  0  0  0  0  0
    3.3605   -1.1365    1.4028 H   0  0  0  0  0  0  0  0  0  0  0  0
  1  2  1  0
  2  3  1  0
  3  4  1  0
  4  5  1  0
  7  6  1  0
  8  7  2  0
  9  7  1  0
 10  8  1  0
 11  6  2  0
 12  6  2  0
 13  6  1  0
 14 16  1  0
 15  8  1  0
 16  9  2  0
 10 14  2  0
 16 17  1  0
  1 18  1  0
  1 19  1  0
  1 20  1  0
  2 21  1  0
  2 22  1  0
  3 23  1  0
  4 24  1  0
  4 25  1  0
  5 26  1  0
  5 27  1  0
  5 28  1  0
  9 29  1  0
 10 30  1  0
 13 31  1  0
 14 32  1  0
 15 33  1  0
 17 34  1  0
M  END
$$$$
