
     RDKit          3D

 34 33  0  0  0  0  0  0  0  0999 V2000
   -2.3794    0.0858   -0.2038 C   0  0  0  0  0  0  0  0  0  0  0  0
   -0.9257    0.5105   -0.3515 C   0  0  0  0  0  0  0  0  0  0  0  0
   -0.1076   -0.6523   -0.6867 N   0  0  0  0  0  0  0  0  0  0  0  0
    1.2964   -0.3142   -0.9137 C   0  0  0  0  0  0  0  0  0  0  0  0
    2.0597   -0.0091    0.3679 C   0  0  0  0  0  0  0  0  0  0  0  0
   -2.1322    0.1428   -0.5786 S   0  0  0  0  0  0  0  0  0  0  0  0
   -0.4101    0.1122   -0.2102 C   0  0  0  0  0  0  0  0  0  0  0  0
    0.3209    1.2827    0.0013 C   0  0  0  0  0  0  0  0  0  0  0  0
    0.2114   -1.1429   -0.1368 C   0  0  0  0  0  0  0  0  0  0  0  0
    1.6827    1.1958    0.2901 C   0  0  0  0  0  0  0  0  0  0  0  0
   -2.5852    1.5152   -0.4616 O   0  0  0  0  0  0  0  0  0  0  0  0
   -2.3500   -0.6307   -1.7789 O   0  0  0  0  0  0  0  0  0  0  0  0
   -2.8206   -0.6414    0.6511 O   0  0  0  0  0  0  0  0  0  0  0  0
    2.3077   -0.0502    0.3660 C   0  0  0  0  0  0  0  0  0  0  0  0
   -0.1878    2.5496   -0.0435 O   0  0  0  0  0  0  0  0  0  0  0  0
    1.5692   -1.2083    0.1508 C   0  0  0  0  0  0  0  0  0  0  0  0
    2.2228   -2.4008    0.2315 O   0  0  0  0  0  0  0  0  0  0  0  0
   -2.4993   -0.6479    0.6006 H   0  0  0  0  0  0  0  0  0  0  0  0
   -2.7596   -0.3557   -1.1312 H   0  0  0  0  0  0  0  0  0  0  0  0
   -3.0027    0.9533    0.0363 H   0  0  0  0  0  0  0  0  0  0  0  0
   -0.8573    1.2651   -1.1431 H   0  0  0  0  0  0  0  0  0  0  0  0
   -0.5957    0.9684    0.5868 H   0  0  0  0  0  0  0  0  0  0  0  0
   -0.1811   -1.3523    0.0510 H   0  0  0  0  0  0  0  0  0  0  0  0
    1.7701   -1.1763   -1.3971 H   0  0  0  0  0  0  0  0  0  0  0  0
    1.3869    0.5201   -1.6190 H   0  0  0  0  0  0  0  0  0  0  0  0
    1.6917    0.8999    0.8531 H   0  0  0  0  0  0  0  0  0  0  0  0
    3.1208    0.1415    0.1435 H   0  0  0  0  0  0  0  0  0  0  0  0
    1.9829   -0.8367    1.0809 H   0  0  0  0  0  0  0  0  0  0  0  0
   -0.3676   -2.0466   -0.3076 H   0  0  0  0  0  0  0  0  0  0  0  0
    2.2613    2.1014    0.4565 H   0  0  0  0  0  0  0  0  0  0  0  0
   -3.5482   -0.0828    0.9979 H   0  0  0  0  0  0  0  0  0  0  0  0
    3.3692   -0.1150    0.5900 H   0  0  0  0  0  0  0  0  0  0  0  0
   -1.1489    2.5393   -0.2377 H   0  0  0  0  0  0  0  0  0  0  0  0
    1.6054   -3.1206    0.0196 H   0  0  0  0  0  0  0  0  0  0  0  0
  1  2  1  0
  2  3  1  0
  3  4  1  0
  4  5  1  0
  7  6  1  0
  8  7  2  0
  9  7  1  0
 10  8  1  0
 11  6  2  0
 12  6  2  0
 13  6  1  0
 14 16  1  0
 15  8  1  0
 16  9  2  0
 10 14  2  0
 16 17  1  0
  1 18  1  0
  1 19  1  0
  1 20  1  0
  2 21  1  0
  2 22  1  0
  3 23  1  0
  4 24  1  0
  4 25  1  0
  5 26  1  0
  5 27  1  0
  5 28  1  0
  9 29  1  0
 10 30  1  0
 13 31  1  0
 14 32  1  0
 15 33  1  0
 17 34  1  0
M  END
$$$$
