
     RDKit          3D

 17 16  0  0  0  0  0  0  0  0999 V2000
    1.5521    0.7410    0.3030 C   0  0  0  0  0  0  0  0  0  0  0  0
    1.0647   -0.6319    0.5512 C   0  0  0  0  0  0  0  0  0  0  0  0
   -0.1642   -1.0033   -0.0920 N   0  0  0  0  0  0  0  0  0  0  0  0
   -1.2931   -0.2626    0.4397 C   0  0  0  0  0  0  0  0  0  0  0  0
   -1.1594    1.1569    0.0079 C   0  0  0  0  0  0  0  0  0  0  0  0
   -1.9053   -0.4662    0.0005 S   0  0  0  0  0  0  0  0  0  0  0  0
   -0.1905   -0.0729   -0.0030 C   0  0  0  0  0  0  0  0  0  0  0  0
    0.1768    1.2461   -0.1740 C   0  0  0  0  0  0  0  0  0  0  0  0
    0.7643   -1.0738    0.1634 C   0  0  0  0  0  0  0  0  0  0  0  0
    1.5259    1.5300   -0.1731 C   0  0  0  0  0  0  0  0  0  0  0  0
   -2.1237   -1.8905    0.3987 O   0  0  0  0  0  0  0  0  0  0  0  0
   -2.5430    0.3845    1.0910 O   0  0  0  0  0  0  0  0  0  0  0  0
   -2.6591   -0.0480   -1.4262 O   0  0  0  0  0  0  0  0  0  0  0  0
    2.4855    0.5828   -0.0141 C   0  0  0  0  0  0  0  0  0  0  0  0
   -0.7528    2.2595   -0.3412 O   0  0  0  0  0  0  0  0  0  0  0  0
    2.1090   -0.7491    0.1584 C   0  0  0  0  0  0  0  0  0  0  0  0
    3.1128   -1.7025    0.3196 O   0  0  0  0  0  0  0  0  0  0  0  0
  1  2  1  0
  2  3  1  0
  3  4  1  0
  4  5  1  0
  7  6  1  0
  8  7  2  0
  9  7  1  0
 10  8  1  0
 11  6  2  0
 12  6  2  0
 13  6  1  0
 14 16  1  0
 15  8  1  0
 16  9  2  0
 10 14  2  0
 16 17  1  0
M  END
