
     RDKit          3D

 34 33  0  0  0  0  0  0  0  0999 V2000
   -1.8994   -0.3486   -0.3138 C   0  0  0  0  0  0  0  0  0  0  0  0
   -0.8449   -0.5277    0.7695 C   0  0  0  0  0  0  0  0  0  0  0  0
    0.0532    0.6174    0.9150 N   0  0  0  0  0  0  0  0  0  0  0  0
    0.9374    0.8628   -0.2239 C   0  0  0  0  0  0  0  0  0  0  0  0
    1.9426   -0.2536   -0.4686 C   0  0  0  0  0  0  0  0  0  0  0  0
    1.8547   -1.4601   -0.0493 S   0  0  0  0  0  0  0  0  0  0  0  0
    0.4099   -0.4392   -0.0520 C   0  0  0  0  0  0  0  0  0  0  0  0
    0.5276    0.9522   -0.0545 C   0  0  0  0  0  0  0  0  0  0  0  0
   -0.8479   -1.0524   -0.0329 C   0  0  0  0  0  0  0  0  0  0  0  0
   -0.6202    1.7443   -0.0495 C   0  0  0  0  0  0  0  0  0  0  0  0
    1.5168   -2.6939    0.6289 O   0  0  0  0  0  0  0  0  0  0  0  0
    2.3754   -1.4508   -1.3990 O   0  0  0  0  0  0  0  0  0  0  0  0
    2.9131   -0.6694    0.8820 O   0  0  0  0  0  0  0  0  0  0  0  0
   -1.8781    1.1369   -0.0362 C   0  0  0  0  0  0  0  0  0  0  0  0
    1.7617    1.5442   -0.0589 O   0  0  0  0  0  0  0  0  0  0  0  0
   -1.9825   -0.2511   -0.0260 C   0  0  0  0  0  0  0  0  0  0  0  0
   -3.2335   -0.7902   -0.0075 O   0  0  0  0  0  0  0  0  0  0  0  0
   -1.4542   -0.3269   -1.3130 H   0  0  0  0  0  0  0  0  0  0  0  0
   -2.6081   -1.1828   -0.2862 H   0  0  0  0  0  0  0  0  0  0  0  0
   -2.4663    0.5765   -0.1661 H   0  0  0  0  0  0  0  0  0  0  0  0
   -0.2851   -1.4544    0.6060 H   0  0  0  0  0  0  0  0  0  0  0  0
   -1.3610   -0.6598    1.7278 H   0  0  0  0  0  0  0  0  0  0  0  0
   -0.5032    1.4554    1.0851 H   0  0  0  0  0  0  0  0  0  0  0  0
    0.3656    1.0651   -1.1358 H   0  0  0  0  0  0  0  0  0  0  0  0
    1.5007    1.7785   -0.0087 H   0  0  0  0  0  0  0  0  0  0  0  0
    2.5050   -0.4866    0.4417 H   0  0  0  0  0  0  0  0  0  0  0  0
    2.6610    0.0531   -1.2361 H   0  0  0  0  0  0  0  0  0  0  0  0
    1.4566   -1.1684   -0.8208 H   0  0  0  0  0  0  0  0  0  0  0  0
   -0.9272   -2.1361   -0.0239 H   0  0  0  0  0  0  0  0  0  0  0  0
   -0.5637    2.8290   -0.0502 H   0  0  0  0  0  0  0  0  0  0  0  0
    2.9974    0.2459    0.5284 H   0  0  0  0  0  0  0  0  0  0  0  0
   -2.7795    1.7451   -0.0302 H   0  0  0  0  0  0  0  0  0  0  0  0
    1.6397    2.5055   -0.1841 H   0  0  0  0  0  0  0  0  0  0  0  0
   -3.1637   -1.7598    0.0148 H   0  0  0  0  0  0  0  0  0  0  0  0
  1  2  1  0
  2  3  1  0
  3  4  1  0
  4  5  1  0
  7  6  1  0
  8  7  2  0
  9  7  1  0
 10  8  1  0
 11  6  2  0
 12  6  2  0
 13  6  1  0
 14 16  1  0
 15  8  1  0
 16  9  2  0
 10 14  2  0
 16 17  1  0
  1 18  1  0
  1 19  1  0
  1 20  1  0
  2 21  1  0
  2 22  1  0
  3 23  1  0
  4 24  1  0
  4 25  1  0
  5 26  1  0
  5 27  1  0
  5 28  1  0
  9 29  1  0
 10 30  1  0
 13 31  1  0
 14 32  1  0
 15 33  1  0
 17 34  1  0
M  END
$$$$
