
     RDKit          3D

 34 33  0  0  0  0  0  0  0  0999 V2000
   -2.4203   -0.3634    0.3296 C   0  0  0  0  0  0  0  0  0  0  0  0
   -1.1994    0.5158    0.1064 C   0  0  0  0  0  0  0  0  0  0  0  0
   -0.0091   -0.3190   -0.0450 N   0  0  0  0  0  0  0  0  0  0  0  0
    1.1854    0.4977   -0.2508 C   0  0  0  0  0  0  0  0  0  0  0  0
    2.4050   -0.3999   -0.3931 C   0  0  0  0  0  0  0  0  0  0  0  0
   -2.2789   -0.2714   -0.2096 S   0  0  0  0  0  0  0  0  0  0  0  0
   -0.5479    0.0500   -0.1651 C   0  0  0  0  0  0  0  0  0  0  0  0
   -0.0155    1.1268    0.5460 C   0  0  0  0  0  0  0  0  0  0  0  0
    0.2928   -0.8102   -0.8814 C   0  0  0  0  0  0  0  0  0  0  0  0
    1.3640    1.3399    0.5394 C   0  0  0  0  0  0  0  0  0  0  0  0
   -2.6768   -0.4495   -1.5880 O   0  0  0  0  0  0  0  0  0  0  0  0
   -2.9271    0.6994    0.6495 O   0  0  0  0  0  0  0  0  0  0  0  0
   -2.4445   -1.7156    0.4873 O   0  0  0  0  0  0  0  0  0  0  0  0
    2.2089    0.4839   -0.1708 C   0  0  0  0  0  0  0  0  0  0  0  0
   -0.7408    2.0241    1.2775 O   0  0  0  0  0  0  0  0  0  0  0  0
    1.6634   -0.5844   -0.8751 C   0  0  0  0  0  0  0  0  0  0  0  0
    2.4481   -1.4448   -1.5821 O   0  0  0  0  0  0  0  0  0  0  0  0
   -2.5775   -1.0445   -0.5137 H   0  0  0  0  0  0  0  0  0  0  0  0
   -2.3173   -0.9627    1.2405 H   0  0  0  0  0  0  0  0  0  0  0  0
   -3.3168    0.2562    0.4339 H   0  0  0  0  0  0  0  0  0  0  0  0
   -1.3562    1.1195   -0.7947 H   0  0  0  0  0  0  0  0  0  0  0  0
   -1.0871    1.1962    0.9584 H   0  0  0  0  0  0  0  0  0  0  0  0
    0.1107   -0.8997    0.7848 H   0  0  0  0  0  0  0  0  0  0  0  0
    1.0804    1.1011   -1.1596 H   0  0  0  0  0  0  0  0  0  0  0  0
    1.3377    1.1778    0.5952 H   0  0  0  0  0  0  0  0  0  0  0  0
    3.3018    0.2061   -0.5574 H   0  0  0  0  0  0  0  0  0  0  0  0
    2.2982   -1.0814   -1.2439 H   0  0  0  0  0  0  0  0  0  0  0  0
    2.5646   -0.9997    0.5094 H   0  0  0  0  0  0  0  0  0  0  0  0
   -0.1097   -1.6471   -1.4462 H   0  0  0  0  0  0  0  0  0  0  0  0
    1.7818    2.1781    1.0929 H   0  0  0  0  0  0  0  0  0  0  0  0
   -2.9758   -2.2792   -0.1143 H   0  0  0  0  0  0  0  0  0  0  0  0
    3.2788    0.6680   -0.1609 H   0  0  0  0  0  0  0  0  0  0  0  0
   -1.6956    1.7936    1.2685 H   0  0  0  0  0  0  0  0  0  0  0  0
    3.3748   -1.1618   -1.5042 H   0  0  0  0  0  0  0  0  0  0  0  0
  1  2  1  0
  2  3  1  0
  3  4  1  0
  4  5  1  0
  7  6  1  0
  8  7  2  0
  9  7  1  0
 10  8  1  0
 11  6  2  0
 12  6  2  0
 13  6  1  0
 14 16  1  0
 15  8  1  0
 16  9  2  0
 10 14  2  0
 16 17  1  0
  1 18  1  0
  1 19  1  0
  1 20  1  0
  2 21  1  0
  2 22  1  0
  3 23  1  0
  4 24  1  0
  4 25  1  0
  5 26  1  0
  5 27  1  0
  5 28  1  0
  9 29  1  0
 10 30  1  0
 13 31  1  0
 14 32  1  0
 15 33  1  0
 17 34  1  0
M  END
$$$$
