
     RDKit          3D

 21 18  0  0  0  0  0  0  0  0999 V2000
    0.0000    0.0000    0.0000 Na  0  0  0  0  0 15  0  0  0  0  0  0
   -0.0332    1.2210   -0.2487 C   0  0  0  0  0  0  0  0  0  0  0  0
   -0.6082    2.2209   -1.0339 O   0  0  0  0  0  0  0  0  0  0  0  0
    0.2307    1.4077    0.9680 O   0  0  0  0  0  0  0  0  0  0  0  0
    0.2824   -0.1169   -0.8647 C   0  0  0  0  0  0  0  0  0  0  0  0
    0.8897   -0.9306    0.2860 C   0  0  0  0  0  0  0  0  0  0  0  0
   -1.0401   -0.8094   -1.1725 C   0  0  0  0  0  0  0  0  0  0  0  0
   -1.8245   -0.9921    0.1100 C   0  0  0  0  0  0  0  0  0  0  0  0
    2.1104   -0.2229    0.7675 C   0  0  0  0  0  0  0  0  0  0  0  0
    3.1091   -0.1026   -0.3619 C   0  0  0  0  0  0  0  0  0  0  0  0
   -3.1163   -1.6751   -0.2328 C   0  0  0  0  0  0  0  0  0  0  0  0
   -0.1691   -1.2270   -0.5740 C   0  0  0  0  0  0  0  0  0  0  0  0
    0.6298   -1.4650   -1.5105 O   0  0  0  0  0  0  0  0  0  0  0  0
    0.0796   -0.5436    0.6644 C   0  0  0  0  0  0  0  0  0  0  0  0
   -1.4858   -1.7107   -0.7994 O   0  0  0  0  0  0  0  0  0  0  0  0
    1.3458    0.0526    0.9984 C   0  0  0  0  0  0  0  0  0  0  0  0
   -1.1290   -0.0602    1.3935 C   0  0  0  0  0  0  0  0  0  0  0  0
    1.8556    1.1276    0.1401 C   0  0  0  0  0  0  0  0  0  0  0  0
   -1.9920    0.9092    0.6691 C   0  0  0  0  0  0  0  0  0  0  0  0
   -1.2291    2.1629    0.3105 C   0  0  0  0  0  0  0  0  0  0  0  0
    2.0940    0.7543   -1.2921 C   0  0  0  0  0  0  0  0  0  0  0  0
  3  2  1  0
  4  2  2  0
  5  2  1  0
  6  5  1  0
  7  5  1  0
  8  7  1  0
  9  6  1  0
 10  9  1  0
 11  8  1  0
 13 12  2  0
 14 12  1  0
 15 12  1  0
 16 14  1  0
 17 14  1  0
 18 16  1  0
 19 17  1  0
 20 19  1  0
 21 18  1  0
M  CHG  2   1   1   3  -1
M  END
