
     RDKit          3D

 52 49  0  0  0  0  0  0  0  0999 V2000
    0.0000    0.0000    0.0000 Na  0  0  0  0  0 15  0  0  0  0  0  0
   -0.4124   -2.1107   -0.7142 C   0  0  0  0  0  0  0  0  0  0  0  0
   -0.4115   -3.1999   -0.0711 O   0  0  0  0  0  0  0  0  0  0  0  0
   -0.6645   -1.9005   -1.9339 O   0  0  0  0  0  0  0  0  0  0  0  0
   -0.0439   -0.8711    0.1276 C   0  0  0  0  0  0  0  0  0  0  0  0
    1.4213   -0.5701   -0.2354 C   0  0  0  0  0  0  0  0  0  0  0  0
   -0.9792    0.3150   -0.1437 C   0  0  0  0  0  0  0  0  0  0  0  0
   -2.4247    0.0237    0.2734 C   0  0  0  0  0  0  0  0  0  0  0  0
    2.0795    0.4369    0.7117 C   0  0  0  0  0  0  0  0  0  0  0  0
    3.5522    0.6281    0.3808 C   0  0  0  0  0  0  0  0  0  0  0  0
   -3.3221    1.2304    0.0450 C   0  0  0  0  0  0  0  0  0  0  0  0
   -0.2177   -1.5205   -0.6479 C   0  0  0  0  0  0  0  0  0  0  0  0
   -0.1349   -1.6529   -1.8574 O   0  0  0  0  0  0  0  0  0  0  0  0
   -0.0584   -0.2366    0.1374 C   0  0  0  0  0  0  0  0  0  0  0  0
   -0.4758   -2.5811    0.1409 O   0  0  0  0  0  0  0  0  0  0  0  0
    1.3527    0.3349   -0.0846 C   0  0  0  0  0  0  0  0  0  0  0  0
   -1.1294    0.7764   -0.3028 C   0  0  0  0  0  0  0  0  0  0  0  0
    2.4474   -0.5491    0.5214 C   0  0  0  0  0  0  0  0  0  0  0  0
   -2.5463    0.3392    0.0824 C   0  0  0  0  0  0  0  0  0  0  0  0
   -3.5769    1.3843   -0.3161 C   0  0  0  0  0  0  0  0  0  0  0  0
    3.8251    0.0676    0.3347 C   0  0  0  0  0  0  0  0  0  0  0  0
   -0.1034   -1.1384    1.1909 H   0  0  0  0  0  0  0  0  0  0  0  0
    2.0029   -1.5017   -0.2122 H   0  0  0  0  0  0  0  0  0  0  0  0
    1.4846   -0.1941   -1.2651 H   0  0  0  0  0  0  0  0  0  0  0  0
   -0.6323    1.1918    0.4147 H   0  0  0  0  0  0  0  0  0  0  0  0
   -0.9541    0.5908   -1.2053 H   0  0  0  0  0  0  0  0  0  0  0  0
   -2.4565   -0.2510    1.3342 H   0  0  0  0  0  0  0  0  0  0  0  0
   -2.8233   -0.8245   -0.2938 H   0  0  0  0  0  0  0  0  0  0  0  0
    1.9873    0.0897    1.7472 H   0  0  0  0  0  0  0  0  0  0  0  0
    1.5789    1.4083    0.6466 H   0  0  0  0  0  0  0  0  0  0  0  0
    4.0034    1.3527    1.0660 H   0  0  0  0  0  0  0  0  0  0  0  0
    3.6793    1.0011   -0.6405 H   0  0  0  0  0  0  0  0  0  0  0  0
    4.1014   -0.3142    0.4740 H   0  0  0  0  0  0  0  0  0  0  0  0
   -3.3362    1.5138   -1.0123 H   0  0  0  0  0  0  0  0  0  0  0  0
   -2.9785    2.0912    0.6275 H   0  0  0  0  0  0  0  0  0  0  0  0
   -4.3483    1.0024    0.3495 H   0  0  0  0  0  0  0  0  0  0  0  0
   -0.1901   -0.4485    1.2062 H   0  0  0  0  0  0  0  0  0  0  0  0
   -0.5537   -3.3295   -0.4873 H   0  0  0  0  0  0  0  0  0  0  0  0
    1.5433    0.4648   -1.1577 H   0  0  0  0  0  0  0  0  0  0  0  0
    1.4140    1.3310    0.3718 H   0  0  0  0  0  0  0  0  0  0  0  0
   -1.0795    0.9314   -1.3883 H   0  0  0  0  0  0  0  0  0  0  0  0
   -0.9223    1.7466    0.1664 H   0  0  0  0  0  0  0  0  0  0  0  0
    2.4382   -1.5406    0.0553 H   0  0  0  0  0  0  0  0  0  0  0  0
    2.2601   -0.6910    1.5921 H   0  0  0  0  0  0  0  0  0  0  0  0
   -2.7983   -0.6092   -0.4051 H   0  0  0  0  0  0  0  0  0  0  0  0
   -2.6029    0.1740    1.1645 H   0  0  0  0  0  0  0  0  0  0  0  0
   -3.5671    1.5520   -1.3978 H   0  0  0  0  0  0  0  0  0  0  0  0
   -4.5810    1.0536   -0.0326 H   0  0  0  0  0  0  0  0  0  0  0  0
   -3.3807    2.3391    0.1820 H   0  0  0  0  0  0  0  0  0  0  0  0
    4.0564    0.1959   -0.7275 H   0  0  0  0  0  0  0  0  0  0  0  0
    4.5919   -0.5781    0.7739 H   0  0  0  0  0  0  0  0  0  0  0  0
    3.8863    1.0464    0.8209 H   0  0  0  0  0  0  0  0  0  0  0  0
  3  2  1  0
  4  2  2  0
  5  2  1  0
  6  5  1  0
  7  5  1  0
  8  7  1  0
  9  6  1  0
 10  9  1  0
 11  8  1  0
 13 12  2  0
 14 12  1  0
 15 12  1  0
 16 14  1  0
 17 14  1  0
 18 16  1  0
 19 17  1  0
 20 19  1  0
 21 18  1  0
  5 22  1  0
  6 23  1  0
  6 24  1  0
  7 25  1  0
  7 26  1  0
  8 27  1  0
  8 28  1  0
  9 29  1  0
  9 30  1  0
 10 31  1  0
 10 32  1  0
 10 33  1  0
 11 34  1  0
 11 35  1  0
 11 36  1  0
 14 37  1  0
 15 38  1  0
 16 39  1  0
 16 40  1  0
 17 41  1  0
 17 42  1  0
 18 43  1  0
 18 44  1  0
 19 45  1  0
 19 46  1  0
 20 47  1  0
 20 48  1  0
 20 49  1  0
 21 50  1  0
 21 51  1  0
 21 52  1  0
M  CHG  2   1   1   3  -1
M  END
$$$$
