
     RDKit          3D

 52 49  0  0  0  0  0  0  0  0999 V2000
    0.0000    0.0000    0.0000 Na  0  0  0  0  0 15  0  0  0  0  0  0
   -0.3023   -1.1355   -1.3764 C   0  0  0  0  0  0  0  0  0  0  0  0
   -0.2248   -2.3887   -1.2386 O   0  0  0  0  0  0  0  0  0  0  0  0
   -0.5973   -0.4573   -2.4022 O   0  0  0  0  0  0  0  0  0  0  0  0
    0.0041   -0.2950   -0.1216 C   0  0  0  0  0  0  0  0  0  0  0  0
   -0.9923   -0.6496    0.9964 C   0  0  0  0  0  0  0  0  0  0  0  0
    1.4433   -0.5702    0.3486 C   0  0  0  0  0  0  0  0  0  0  0  0
    2.5372   -0.2098   -0.6640 C   0  0  0  0  0  0  0  0  0  0  0  0
   -2.4641   -0.3729    0.6662 C   0  0  0  0  0  0  0  0  0  0  0  0
   -2.7656    1.0951    0.4075 C   0  0  0  0  0  0  0  0  0  0  0  0
    2.5806    1.2693   -1.0145 C   0  0  0  0  0  0  0  0  0  0  0  0
    0.1954    1.4848   -0.5773 C   0  0  0  0  0  0  0  0  0  0  0  0
    0.3828    1.8349   -1.7312 O   0  0  0  0  0  0  0  0  0  0  0  0
    0.1636    0.0551   -0.0821 C   0  0  0  0  0  0  0  0  0  0  0  0
   -0.0023    2.4007    0.3886 O   0  0  0  0  0  0  0  0  0  0  0  0
   -1.2050   -0.2827    0.5380 C   0  0  0  0  0  0  0  0  0  0  0  0
    1.2939   -0.1989    0.9319 C   0  0  0  0  0  0  0  0  0  0  0  0
   -2.3452   -0.2268   -0.4837 C   0  0  0  0  0  0  0  0  0  0  0  0
    2.7109    0.0452    0.3991 C   0  0  0  0  0  0  0  0  0  0  0  0
    3.0921   -0.8633   -0.7593 C   0  0  0  0  0  0  0  0  0  0  0  0
   -3.6727   -0.6225    0.1444 C   0  0  0  0  0  0  0  0  0  0  0  0
   -0.0934    0.7702   -0.3573 H   0  0  0  0  0  0  0  0  0  0  0  0
   -0.8970   -1.7113    1.2590 H   0  0  0  0  0  0  0  0  0  0  0  0
   -0.7283   -0.0874    1.9016 H   0  0  0  0  0  0  0  0  0  0  0  0
    1.6297   -0.0105    1.2744 H   0  0  0  0  0  0  0  0  0  0  0  0
    1.5557   -1.6313    0.6067 H   0  0  0  0  0  0  0  0  0  0  0  0
    3.5065   -0.4923   -0.2352 H   0  0  0  0  0  0  0  0  0  0  0  0
    2.4207   -0.7990   -1.5803 H   0  0  0  0  0  0  0  0  0  0  0  0
   -3.0735   -0.7068    1.5149 H   0  0  0  0  0  0  0  0  0  0  0  0
   -2.7822   -0.9686   -0.1965 H   0  0  0  0  0  0  0  0  0  0  0  0
   -2.2850    1.4486   -0.5092 H   0  0  0  0  0  0  0  0  0  0  0  0
   -2.4270    1.7192    1.2404 H   0  0  0  0  0  0  0  0  0  0  0  0
   -3.8444    1.2415    0.2916 H   0  0  0  0  0  0  0  0  0  0  0  0
    2.6627    1.8851   -0.1134 H   0  0  0  0  0  0  0  0  0  0  0  0
    1.6879    1.5781   -1.5660 H   0  0  0  0  0  0  0  0  0  0  0  0
    3.4484    1.4792   -1.6481 H   0  0  0  0  0  0  0  0  0  0  0  0
    0.3103   -0.5960   -0.9523 H   0  0  0  0  0  0  0  0  0  0  0  0
    0.0494    3.2576   -0.0843 H   0  0  0  0  0  0  0  0  0  0  0  0
   -1.4271    0.4003    1.3677 H   0  0  0  0  0  0  0  0  0  0  0  0
   -1.1649   -1.2934    0.9638 H   0  0  0  0  0  0  0  0  0  0  0  0
    1.2301   -1.2352    1.2881 H   0  0  0  0  0  0  0  0  0  0  0  0
    1.1485    0.4385    1.8137 H   0  0  0  0  0  0  0  0  0  0  0  0
   -2.1287   -0.9019   -1.3197 H   0  0  0  0  0  0  0  0  0  0  0  0
   -2.4374    0.7838   -0.8967 H   0  0  0  0  0  0  0  0  0  0  0  0
    3.4188   -0.1241    1.2196 H   0  0  0  0  0  0  0  0  0  0  0  0
    2.8312    1.0916    0.0973 H   0  0  0  0  0  0  0  0  0  0  0  0
    2.9479   -1.9163   -0.4976 H   0  0  0  0  0  0  0  0  0  0  0  0
    4.1465   -0.7198   -1.0170 H   0  0  0  0  0  0  0  0  0  0  0  0
    2.5017   -0.6434   -1.6533 H   0  0  0  0  0  0  0  0  0  0  0  0
   -4.4731   -0.5763   -0.6007 H   0  0  0  0  0  0  0  0  0  0  0  0
   -3.6326   -1.6437    0.5366 H   0  0  0  0  0  0  0  0  0  0  0  0
   -3.9340    0.0518    0.9662 H   0  0  0  0  0  0  0  0  0  0  0  0
  3  2  1  0
  4  2  2  0
  5  2  1  0
  6  5  1  0
  7  5  1  0
  8  7  1  0
  9  6  1  0
 10  9  1  0
 11  8  1  0
 13 12  2  0
 14 12  1  0
 15 12  1  0
 16 14  1  0
 17 14  1  0
 18 16  1  0
 19 17  1  0
 20 19  1  0
 21 18  1  0
  5 22  1  0
  6 23  1  0
  6 24  1  0
  7 25  1  0
  7 26  1  0
  8 27  1  0
  8 28  1  0
  9 29  1  0
  9 30  1  0
 10 31  1  0
 10 32  1  0
 10 33  1  0
 11 34  1  0
 11 35  1  0
 11 36  1  0
 14 37  1  0
 15 38  1  0
 16 39  1  0
 16 40  1  0
 17 41  1  0
 17 42  1  0
 18 43  1  0
 18 44  1  0
 19 45  1  0
 19 46  1  0
 20 47  1  0
 20 48  1  0
 20 49  1  0
 21 50  1  0
 21 51  1  0
 21 52  1  0
M  CHG  2   1   1   3  -1
M  END
$$$$
