
     RDKit          3D

 52 49  0  0  0  0  0  0  0  0999 V2000
    0.0000    0.0000    0.0000 Na  0  0  0  0  0 15  0  0  0  0  0  0
    0.1872    1.6754   -0.4731 C   0  0  0  0  0  0  0  0  0  0  0  0
    0.2831    1.9041   -1.7132 O   0  0  0  0  0  0  0  0  0  0  0  0
    0.1103    2.4902    0.4890 O   0  0  0  0  0  0  0  0  0  0  0  0
    0.1624    0.1798   -0.0998 C   0  0  0  0  0  0  0  0  0  0  0  0
   -1.1587   -0.1541    0.6141 C   0  0  0  0  0  0  0  0  0  0  0  0
    1.3558   -0.1462    0.8141 C   0  0  0  0  0  0  0  0  0  0  0  0
    2.7359    0.1020    0.1932 C   0  0  0  0  0  0  0  0  0  0  0  0
   -2.3781   -0.0062   -0.3015 C   0  0  0  0  0  0  0  0  0  0  0  0
   -3.6598   -0.4069    0.4128 C   0  0  0  0  0  0  0  0  0  0  0  0
    3.0143   -0.7511   -1.0346 C   0  0  0  0  0  0  0  0  0  0  0  0
   -0.1935    1.6350   -0.0672 C   0  0  0  0  0  0  0  0  0  0  0  0
   -0.0015    2.1525   -1.1546 O   0  0  0  0  0  0  0  0  0  0  0  0
   -0.0805    0.1640    0.2704 C   0  0  0  0  0  0  0  0  0  0  0  0
   -0.5464    2.3841    0.9949 O   0  0  0  0  0  0  0  0  0  0  0  0
   -1.0840   -0.6402   -0.5742 C   0  0  0  0  0  0  0  0  0  0  0  0
    1.3571   -0.3185    0.0100 C   0  0  0  0  0  0  0  0  0  0  0  0
   -2.5395   -0.3376   -0.2042 C   0  0  0  0  0  0  0  0  0  0  0  0
    2.3715    0.3096    0.9710 C   0  0  0  0  0  0  0  0  0  0  0  0
    3.7734   -0.2268    0.7259 C   0  0  0  0  0  0  0  0  0  0  0  0
   -3.5061   -1.1861   -1.0161 C   0  0  0  0  0  0  0  0  0  0  0  0
    0.2254   -0.4282   -1.0103 H   0  0  0  0  0  0  0  0  0  0  0  0
   -1.2898    0.4809    1.4995 H   0  0  0  0  0  0  0  0  0  0  0  0
   -1.1163   -1.1896    0.9758 H   0  0  0  0  0  0  0  0  0  0  0  0
    1.2969   -1.1997    1.1169 H   0  0  0  0  0  0  0  0  0  0  0  0
    1.2885    0.4404    1.7395 H   0  0  0  0  0  0  0  0  0  0  0  0
    2.8567    1.1605   -0.0626 H   0  0  0  0  0  0  0  0  0  0  0  0
    3.4970   -0.1225    0.9504 H   0  0  0  0  0  0  0  0  0  0  0  0
   -2.4747    1.0299   -0.6441 H   0  0  0  0  0  0  0  0  0  0  0  0
   -2.2528   -0.6334   -1.1917 H   0  0  0  0  0  0  0  0  0  0  0  0
   -4.5179   -0.2945   -0.2572 H   0  0  0  0  0  0  0  0  0  0  0  0
   -3.8310    0.2213    1.2928 H   0  0  0  0  0  0  0  0  0  0  0  0
   -3.6179   -1.4512    0.7383 H   0  0  0  0  0  0  0  0  0  0  0  0
    4.0495   -0.6107   -1.3618 H   0  0  0  0  0  0  0  0  0  0  0  0
    2.8695   -1.8138   -0.8164 H   0  0  0  0  0  0  0  0  0  0  0  0
    2.3645   -0.4765   -1.8704 H   0  0  0  0  0  0  0  0  0  0  0  0
   -0.3154    0.0183    1.3326 H   0  0  0  0  0  0  0  0  0  0  0  0
   -0.5816    3.2968    0.6391 H   0  0  0  0  0  0  0  0  0  0  0  0
   -0.9301   -0.4344   -1.6413 H   0  0  0  0  0  0  0  0  0  0  0  0
   -0.9007   -1.7122   -0.4277 H   0  0  0  0  0  0  0  0  0  0  0  0
    1.3969   -1.4094    0.1221 H   0  0  0  0  0  0  0  0  0  0  0  0
    1.6493   -0.0945   -1.0240 H   0  0  0  0  0  0  0  0  0  0  0  0
   -2.7654    0.7201   -0.3792 H   0  0  0  0  0  0  0  0  0  0  0  0
   -2.7001   -0.5326    0.8625 H   0  0  0  0  0  0  0  0  0  0  0  0
    2.3845    1.3988    0.8532 H   0  0  0  0  0  0  0  0  0  0  0  0
    2.0825    0.0976    2.0069 H   0  0  0  0  0  0  0  0  0  0  0  0
    4.1053   -0.0052   -0.2935 H   0  0  0  0  0  0  0  0  0  0  0  0
    3.8101   -1.3111    0.8717 H   0  0  0  0  0  0  0  0  0  0  0  0
    4.4821    0.2334    1.4216 H   0  0  0  0  0  0  0  0  0  0  0  0
   -4.5390   -0.9554   -0.7372 H   0  0  0  0  0  0  0  0  0  0  0  0
   -3.3922   -0.9932   -2.0876 H   0  0  0  0  0  0  0  0  0  0  0  0
   -3.3367   -2.2529   -0.8385 H   0  0  0  0  0  0  0  0  0  0  0  0
  3  2  1  0
  4  2  2  0
  5  2  1  0
  6  5  1  0
  7  5  1  0
  8  7  1  0
  9  6  1  0
 10  9  1  0
 11  8  1  0
 13 12  2  0
 14 12  1  0
 15 12  1  0
 16 14  1  0
 17 14  1  0
 18 16  1  0
 19 17  1  0
 20 19  1  0
 21 18  1  0
  5 22  1  0
  6 23  1  0
  6 24  1  0
  7 25  1  0
  7 26  1  0
  8 27  1  0
  8 28  1  0
  9 29  1  0
  9 30  1  0
 10 31  1  0
 10 32  1  0
 10 33  1  0
 11 34  1  0
 11 35  1  0
 11 36  1  0
 14 37  1  0
 15 38  1  0
 16 39  1  0
 16 40  1  0
 17 41  1  0
 17 42  1  0
 18 43  1  0
 18 44  1  0
 19 45  1  0
 19 46  1  0
 20 47  1  0
 20 48  1  0
 20 49  1  0
 21 50  1  0
 21 51  1  0
 21 52  1  0
M  CHG  2   1   1   3  -1
M  END
$$$$
