
     RDKit          3D

 29 28  0  0  0  0  0  0  0  0999 V2000
    2.0318   -2.1479    1.2445 O   0  0  0  0  0  0  0  0  0  0  0  0
    1.5470   -1.0253    1.5513 C   0  0  0  0  0  0  0  0  0  0  0  0
    1.7314   -0.2996    2.5752 O   0  0  0  0  0  0  0  0  0  0  0  0
    0.5532   -0.3953    0.5263 C   0  0  0  0  0  0  0  0  0  0  0  0
    0.2466   -1.0307   -0.6109 C   0  0  0  0  0  0  0  0  0  0  0  0
   -0.6968   -0.3975   -1.5491 C   0  0  0  0  0  0  0  0  0  0  0  0
   -1.0126   -0.9365   -2.6062 O   0  0  0  0  0  0  0  0  0  0  0  0
   -1.1977    0.8193   -1.1757 N   0  0  0  0  0  0  0  0  0  0  0  0
   -0.8915    1.4780   -0.0161 C   0  0  0  0  0  0  0  0  0  0  0  0
   -1.3844    2.5714    0.2485 O   0  0  0  0  0  0  0  0  0  0  0  0
   -0.0143    0.8345    0.8020 N   0  0  0  0  0  0  0  0  0  0  0  0
    0.0000    0.0000    0.0000 Mg  0  0  0  0  0 15  0  0  0  0  0  0
    2.9459   -1.2684    0.0584 O   0  0  0  0  0  0  0  0  0  0  0  0
    2.4156   -0.1265   -0.0069 C   0  0  0  0  0  0  0  0  0  0  0  0
    2.9432    1.0247   -0.0791 O   0  0  0  0  0  0  0  0  0  0  0  0
    0.8556   -0.0846   -0.0000 C   0  0  0  0  0  0  0  0  0  0  0  0
    0.1398   -1.2131    0.0719 C   0  0  0  0  0  0  0  0  0  0  0  0
   -1.3310   -1.1251    0.0754 C   0  0  0  0  0  0  0  0  0  0  0  0
   -2.0358   -2.1285    0.1398 O   0  0  0  0  0  0  0  0  0  0  0  0
   -1.8629    0.1331    0.0032 N   0  0  0  0  0  0  0  0  0  0  0  0
   -1.1411    1.2932   -0.0707 C   0  0  0  0  0  0  0  0  0  0  0  0
   -1.6938    2.3883   -0.1331 O   0  0  0  0  0  0  0  0  0  0  0  0
    0.2109    1.1360   -0.0694 N   0  0  0  0  0  0  0  0  0  0  0  0
    0.6621   -1.9947   -0.8757 H   0  0  0  0  0  0  0  0  0  0  0  0
   -1.8426    1.2688   -1.8006 H   0  0  0  0  0  0  0  0  0  0  0  0
    0.2677    1.2555    1.6865 H   0  0  0  0  0  0  0  0  0  0  0  0
    0.5938   -2.1943    0.1280 H   0  0  0  0  0  0  0  0  0  0  0  0
   -2.8637    0.2161    0.0042 H   0  0  0  0  0  0  0  0  0  0  0  0
    0.8233    1.9492   -0.1218 H   0  0  0  0  0  0  0  0  0  0  0  0
  1  2  1  0
  2  3  2  0
  2  4  1  0
  4  5  2  0
  5  6  1  0
  6  7  2  0
  6  8  1  0
  8  9  1  0
  9 10  2  0
  9 11  1  0
  4 11  1  0
 13 14  1  0
 14 15  2  0
 14 16  1  0
 16 17  2  0
 17 18  1  0
 18 19  2  0
 18 20  1  0
 20 21  1  0
 21 22  2  0
 21 23  1  0
 16 23  1  0
  5 24  1  0
  8 25  1  0
 11 26  1  0
 17 27  1  0
 20 28  1  0
 23 29  1  0
M  CHG  3   1  -1  12   2  13  -1
M  END
$$$$
