
     RDKit          3D

 29 28  0  0  0  0  0  0  0  0999 V2000
    2.9652    1.0667    0.6005 O   0  0  0  0  0  0  0  0  0  0  0  0
    2.3916   -0.0302    0.3609 C   0  0  0  0  0  0  0  0  0  0  0  0
    2.8628   -1.2043    0.2700 O   0  0  0  0  0  0  0  0  0  0  0  0
    0.8489    0.0288    0.1336 C   0  0  0  0  0  0  0  0  0  0  0  0
    0.1908    1.1925    0.1944 C   0  0  0  0  0  0  0  0  0  0  0  0
   -1.2659    1.2000   -0.0269 C   0  0  0  0  0  0  0  0  0  0  0  0
   -1.9184    2.2392    0.0175 O   0  0  0  0  0  0  0  0  0  0  0  0
   -1.8459   -0.0119   -0.2834 N   0  0  0  0  0  0  0  0  0  0  0  0
   -1.1834   -1.2074   -0.3480 C   0  0  0  0  0  0  0  0  0  0  0  0
   -1.7770   -2.2565   -0.5840 O   0  0  0  0  0  0  0  0  0  0  0  0
    0.1590   -1.1387   -0.1336 N   0  0  0  0  0  0  0  0  0  0  0  0
    0.0000    0.0000    0.0000 Mg  0  0  0  0  0 15  0  0  0  0  0  0
    3.0664    0.5619   -0.0172 O   0  0  0  0  0  0  0  0  0  0  0  0
    2.3664   -0.4874    0.1164 C   0  0  0  0  0  0  0  0  0  0  0  0
    2.7130   -1.6868    0.2923 O   0  0  0  0  0  0  0  0  0  0  0  0
    0.8320   -0.2117    0.0466 C   0  0  0  0  0  0  0  0  0  0  0  0
   -0.0503   -1.2104    0.1694 C   0  0  0  0  0  0  0  0  0  0  0  0
   -1.4895   -0.9029    0.0970 C   0  0  0  0  0  0  0  0  0  0  0  0
   -2.3415   -1.7807    0.2034 O   0  0  0  0  0  0  0  0  0  0  0  0
   -1.8194    0.4107   -0.0946 N   0  0  0  0  0  0  0  0  0  0  0  0
   -0.9263    1.4396   -0.2214 C   0  0  0  0  0  0  0  0  0  0  0  0
   -1.3022    2.5964   -0.3919 O   0  0  0  0  0  0  0  0  0  0  0  0
    0.3848    1.0820   -0.1446 N   0  0  0  0  0  0  0  0  0  0  0  0
    0.6820    2.1352    0.4000 H   0  0  0  0  0  0  0  0  0  0  0  0
   -2.8382   -0.0298   -0.4373 H   0  0  0  0  0  0  0  0  0  0  0  0
    0.7286   -1.9836   -0.1637 H   0  0  0  0  0  0  0  0  0  0  0  0
    0.2458   -2.2408    0.3205 H   0  0  0  0  0  0  0  0  0  0  0  0
   -2.7951    0.6427   -0.1470 H   0  0  0  0  0  0  0  0  0  0  0  0
    1.1160    1.7872   -0.2291 H   0  0  0  0  0  0  0  0  0  0  0  0
  1  2  1  0
  2  3  2  0
  2  4  1  0
  4  5  2  0
  5  6  1  0
  6  7  2  0
  6  8  1  0
  8  9  1  0
  9 10  2  0
  9 11  1  0
  4 11  1  0
 13 14  1  0
 14 15  2  0
 14 16  1  0
 16 17  2  0
 17 18  1  0
 18 19  2  0
 18 20  1  0
 20 21  1  0
 21 22  2  0
 21 23  1  0
 16 23  1  0
  5 24  1  0
  8 25  1  0
 11 26  1  0
 17 27  1  0
 20 28  1  0
 23 29  1  0
M  CHG  3   1  -1  12   2  13  -1
M  END
$$$$
