
     RDKit          3D

 29 28  0  0  0  0  0  0  0  0999 V2000
    3.1210    0.7392   -0.0618 O   0  0  0  0  0  0  0  0  0  0  0  0
    2.4004   -0.2839    0.0920 C   0  0  0  0  0  0  0  0  0  0  0  0
    2.7200   -1.4943    0.2963 O   0  0  0  0  0  0  0  0  0  0  0  0
    0.8572   -0.0617    0.0264 C   0  0  0  0  0  0  0  0  0  0  0  0
    0.3483    1.1582   -0.1830 C   0  0  0  0  0  0  0  0  0  0  0  0
   -1.1151    1.3203   -0.2373 C   0  0  0  0  0  0  0  0  0  0  0  0
   -1.6348    2.4166   -0.4267 O   0  0  0  0  0  0  0  0  0  0  0  0
   -1.8573    0.1843   -0.0654 N   0  0  0  0  0  0  0  0  0  0  0  0
   -1.3482   -1.0675    0.1492 C   0  0  0  0  0  0  0  0  0  0  0  0
   -2.0826   -2.0411    0.2947 O   0  0  0  0  0  0  0  0  0  0  0  0
    0.0104   -1.1422    0.1872 N   0  0  0  0  0  0  0  0  0  0  0  0
    0.0000    0.0000    0.0000 Mg  0  0  0  0  0 15  0  0  0  0  0  0
    2.9937    1.1524   -0.0252 O   0  0  0  0  0  0  0  0  0  0  0  0
    2.4186    0.0314    0.0213 C   0  0  0  0  0  0  0  0  0  0  0  0
    2.9003   -1.1405    0.0800 O   0  0  0  0  0  0  0  0  0  0  0  0
    0.8583    0.0510    0.0057 C   0  0  0  0  0  0  0  0  0  0  0  0
    0.1876    1.2076   -0.0541 C   0  0  0  0  0  0  0  0  0  0  0  0
   -1.2854    1.1774   -0.0666 C   0  0  0  0  0  0  0  0  0  0  0  0
   -1.9500    2.2085   -0.1205 O   0  0  0  0  0  0  0  0  0  0  0  0
   -1.8666   -0.0598   -0.0148 N   0  0  0  0  0  0  0  0  0  0  0  0
   -1.1913   -1.2482    0.0466 C   0  0  0  0  0  0  0  0  0  0  0  0
   -1.7868   -2.3215    0.0906 O   0  0  0  0  0  0  0  0  0  0  0  0
    0.1659   -1.1442    0.0545 N   0  0  0  0  0  0  0  0  0  0  0  0
    0.9659    2.0376   -0.3153 H   0  0  0  0  0  0  0  0  0  0  0  0
   -2.8572    0.2721   -0.0988 H   0  0  0  0  0  0  0  0  0  0  0  0
    0.4721   -2.0376    0.3426 H   0  0  0  0  0  0  0  0  0  0  0  0
    0.6801    2.1709   -0.0941 H   0  0  0  0  0  0  0  0  0  0  0  0
   -2.8699   -0.1034   -0.0222 H   0  0  0  0  0  0  0  0  0  0  0  0
    0.7456   -1.9815    0.0987 H   0  0  0  0  0  0  0  0  0  0  0  0
  1  2  1  0
  2  3  2  0
  2  4  1  0
  4  5  2  0
  5  6  1  0
  6  7  2  0
  6  8  1  0
  8  9  1  0
  9 10  2  0
  9 11  1  0
  4 11  1  0
 13 14  1  0
 14 15  2  0
 14 16  1  0
 16 17  2  0
 17 18  1  0
 18 19  2  0
 18 20  1  0
 20 21  1  0
 21 22  2  0
 21 23  1  0
 16 23  1  0
  5 24  1  0
  8 25  1  0
 11 26  1  0
 17 27  1  0
 20 28  1  0
 23 29  1  0
M  CHG  3   1  -1  12   2  13  -1
M  END
$$$$
