
     RDKit          3D

 29 28  0  0  0  0  0  0  0  0999 V2000
    2.8004   -1.2959    0.4442 O   0  0  0  0  0  0  0  0  0  0  0  0
    2.4109   -0.1248    0.1513 C   0  0  0  0  0  0  0  0  0  0  0  0
    3.0699    0.9288   -0.0612 O   0  0  0  0  0  0  0  0  0  0  0  0
    0.8586   -0.0056    0.0448 C   0  0  0  0  0  0  0  0  0  0  0  0
    0.2798    1.1627   -0.2571 C   0  0  0  0  0  0  0  0  0  0  0  0
   -1.1894    1.2280   -0.3467 C   0  0  0  0  0  0  0  0  0  0  0  0
   -1.7718    2.2739   -0.6202 O   0  0  0  0  0  0  0  0  0  0  0  0
   -1.8634    0.0618   -0.1088 N   0  0  0  0  0  0  0  0  0  0  0  0
   -1.2824   -1.1378    0.2005 C   0  0  0  0  0  0  0  0  0  0  0  0
   -1.9581   -2.1437    0.4009 O   0  0  0  0  0  0  0  0  0  0  0  0
    0.0771   -1.1238    0.2661 N   0  0  0  0  0  0  0  0  0  0  0  0
    0.0000    0.0000    0.0000 Mg  0  0  0  0  0 15  0  0  0  0  0  0
   -2.6909   -1.7449    0.0736 O   0  0  0  0  0  0  0  0  0  0  0  0
   -2.3588   -0.5341   -0.0412 C   0  0  0  0  0  0  0  0  0  0  0  0
   -3.0708    0.5063   -0.1813 O   0  0  0  0  0  0  0  0  0  0  0  0
   -0.8289   -0.2283   -0.0102 C   0  0  0  0  0  0  0  0  0  0  0  0
    0.0647   -1.2144    0.1317 C   0  0  0  0  0  0  0  0  0  0  0  0
    1.4991   -0.8784    0.1556 C   0  0  0  0  0  0  0  0  0  0  0  0
    2.3609   -1.7437    0.2833 O   0  0  0  0  0  0  0  0  0  0  0  0
    1.8132    0.4468    0.0278 N   0  0  0  0  0  0  0  0  0  0  0  0
    0.9085    1.4629   -0.1177 C   0  0  0  0  0  0  0  0  0  0  0  0
    1.2703    2.6316   -0.2268 O   0  0  0  0  0  0  0  0  0  0  0  0
   -0.3974    1.0792   -0.1312 N   0  0  0  0  0  0  0  0  0  0  0  0
    0.8444    2.0683   -0.4397 H   0  0  0  0  0  0  0  0  0  0  0  0
   -2.8659    0.0838   -0.1647 H   0  0  0  0  0  0  0  0  0  0  0  0
    0.5899   -1.9756    0.4908 H   0  0  0  0  0  0  0  0  0  0  0  0
   -0.2189   -2.2546    0.2304 H   0  0  0  0  0  0  0  0  0  0  0  0
    2.7854    0.6981    0.0415 H   0  0  0  0  0  0  0  0  0  0  0  0
   -1.1364    1.7734   -0.2356 H   0  0  0  0  0  0  0  0  0  0  0  0
  1  2  1  0
  2  3  2  0
  2  4  1  0
  4  5  2  0
  5  6  1  0
  6  7  2  0
  6  8  1  0
  8  9  1  0
  9 10  2  0
  9 11  1  0
  4 11  1  0
 13 14  1  0
 14 15  2  0
 14 16  1  0
 16 17  2  0
 17 18  1  0
 18 19  2  0
 18 20  1  0
 20 21  1  0
 21 22  2  0
 21 23  1  0
 16 23  1  0
  5 24  1  0
  8 25  1  0
 11 26  1  0
 17 27  1  0
 20 28  1  0
 23 29  1  0
M  CHG  3   1  -1  12   2  13  -1
M  END
$$$$
