
     RDKit          3D

 29 28  0  0  0  0  0  0  0  0999 V2000
    2.4753   -1.9359    0.6451 O   0  0  0  0  0  0  0  0  0  0  0  0
    2.2848   -0.7520    0.2558 C   0  0  0  0  0  0  0  0  0  0  0  0
    3.1131    0.1618   -0.0407 O   0  0  0  0  0  0  0  0  0  0  0  0
    0.7982   -0.3028    0.1025 C   0  0  0  0  0  0  0  0  0  0  0  0
   -0.2045   -1.1461    0.3753 C   0  0  0  0  0  0  0  0  0  0  0  0
   -1.5926   -0.6782    0.2162 C   0  0  0  0  0  0  0  0  0  0  0  0
   -2.5497   -1.4102    0.4526 O   0  0  0  0  0  0  0  0  0  0  0  0
   -1.7520    0.6124   -0.2079 N   0  0  0  0  0  0  0  0  0  0  0  0
   -0.7348    1.4831   -0.4896 C   0  0  0  0  0  0  0  0  0  0  0  0
   -0.9599    2.6301   -0.8669 O   0  0  0  0  0  0  0  0  0  0  0  0
    0.5198    0.9832   -0.3206 N   0  0  0  0  0  0  0  0  0  0  0  0
    0.0000    0.0000    0.0000 Mg  0  0  0  0  0 15  0  0  0  0  0  0
    3.0081    0.6683   -0.4729 O   0  0  0  0  0  0  0  0  0  0  0  0
    2.3801   -0.3933   -0.1769 C   0  0  0  0  0  0  0  0  0  0  0  0
    2.8006   -1.5642    0.0275 O   0  0  0  0  0  0  0  0  0  0  0  0
    0.8394   -0.1781   -0.0540 C   0  0  0  0  0  0  0  0  0  0  0  0
    0.0272   -1.1965    0.2530 C   0  0  0  0  0  0  0  0  0  0  0  0
   -1.4210   -0.9463    0.3583 C   0  0  0  0  0  0  0  0  0  0  0  0
   -2.2108   -1.8442    0.6370 O   0  0  0  0  0  0  0  0  0  0  0  0
   -1.8323    0.3379    0.1287 N   0  0  0  0  0  0  0  0  0  0  0  0
   -1.0113    1.3864   -0.1857 C   0  0  0  0  0  0  0  0  0  0  0  0
   -1.4582    2.5142   -0.3780 O   0  0  0  0  0  0  0  0  0  0  0  0
    0.3130    1.0822   -0.2658 N   0  0  0  0  0  0  0  0  0  0  0  0
   -0.0425   -2.1630    0.7096 H   0  0  0  0  0  0  0  0  0  0  0  0
   -2.6901    0.9520   -0.3231 H   0  0  0  0  0  0  0  0  0  0  0  0
    1.3351    1.5656   -0.5084 H   0  0  0  0  0  0  0  0  0  0  0  0
    0.3868   -2.2024    0.4288 H   0  0  0  0  0  0  0  0  0  0  0  0
   -2.8156    0.5306    0.1953 H   0  0  0  0  0  0  0  0  0  0  0  0
    0.9939    1.8053   -0.4952 H   0  0  0  0  0  0  0  0  0  0  0  0
  1  2  1  0
  2  3  2  0
  2  4  1  0
  4  5  2  0
  5  6  1  0
  6  7  2  0
  6  8  1  0
  8  9  1  0
  9 10  2  0
  9 11  1  0
  4 11  1  0
 13 14  1  0
 14 15  2  0
 14 16  1  0
 16 17  2  0
 17 18  1  0
 18 19  2  0
 18 20  1  0
 20 21  1  0
 21 22  2  0
 21 23  1  0
 16 23  1  0
  5 24  1  0
  8 25  1  0
 11 26  1  0
 17 27  1  0
 20 28  1  0
 23 29  1  0
M  CHG  3   1  -1  12   2  13  -1
M  END
$$$$
