
     RDKit          3D

 29 28  0  0  0  0  0  0  0  0999 V2000
    2.9272    1.0593    0.1679 O   0  0  0  0  0  0  0  0  0  0  0  0
    2.4143   -0.0994    0.1104 C   0  0  0  0  0  0  0  0  0  0  0  0
    2.9581   -1.2368    0.1032 O   0  0  0  0  0  0  0  0  0  0  0  0
    0.8557   -0.0751    0.0380 C   0  0  0  0  0  0  0  0  0  0  0  0
    0.1545   -1.2131   -0.0277 C   0  0  0  0  0  0  0  0  0  0  0  0
   -1.3156   -1.1416   -0.0946 C   0  0  0  0  0  0  0  0  0  0  0  0
   -2.0073   -2.1543   -0.1563 O   0  0  0  0  0  0  0  0  0  0  0  0
   -1.8623    0.1122   -0.0842 N   0  0  0  0  0  0  0  0  0  0  0  0
   -1.1557    1.2820   -0.0173 C   0  0  0  0  0  0  0  0  0  0  0  0
   -1.7212    2.3723   -0.0124 O   0  0  0  0  0  0  0  0  0  0  0  0
    0.1967    1.1398    0.0421 N   0  0  0  0  0  0  0  0  0  0  0  0
    0.0000    0.0000    0.0000 Mg  0  0  0  0  0 15  0  0  0  0  0  0
   -3.1045    0.2802   -0.0472 O   0  0  0  0  0  0  0  0  0  0  0  0
   -2.3132   -0.7010    0.0939 C   0  0  0  0  0  0  0  0  0  0  0  0
   -2.5507   -1.9270    0.2673 O   0  0  0  0  0  0  0  0  0  0  0  0
   -0.8097   -0.2866    0.0387 C   0  0  0  0  0  0  0  0  0  0  0  0
    0.1588   -1.2008    0.1708 C   0  0  0  0  0  0  0  0  0  0  0  0
    1.5645   -0.7634    0.1121 C   0  0  0  0  0  0  0  0  0  0  0  0
    2.4919   -1.5599    0.2273 O   0  0  0  0  0  0  0  0  0  0  0  0
    1.7753    0.5748   -0.0773 N   0  0  0  0  0  0  0  0  0  0  0  0
    0.7934    1.5180   -0.2135 C   0  0  0  0  0  0  0  0  0  0  0  0
    1.0639    2.7043   -0.3812 O   0  0  0  0  0  0  0  0  0  0  0  0
   -0.4804    1.0425   -0.1491 N   0  0  0  0  0  0  0  0  0  0  0  0
    0.6201   -2.1905   -0.0340 H   0  0  0  0  0  0  0  0  0  0  0  0
   -2.8630    0.1841   -0.1291 H   0  0  0  0  0  0  0  0  0  0  0  0
    0.7984    1.9611    0.0940 H   0  0  0  0  0  0  0  0  0  0  0  0
   -0.0437   -2.2539    0.3197 H   0  0  0  0  0  0  0  0  0  0  0  0
    2.7262    0.8947   -0.1204 H   0  0  0  0  0  0  0  0  0  0  0  0
   -1.2719    1.6781   -0.2412 H   0  0  0  0  0  0  0  0  0  0  0  0
  1  2  1  0
  2  3  2  0
  2  4  1  0
  4  5  2  0
  5  6  1  0
  6  7  2  0
  6  8  1  0
  8  9  1  0
  9 10  2  0
  9 11  1  0
  4 11  1  0
 13 14  1  0
 14 15  2  0
 14 16  1  0
 16 17  2  0
 17 18  1  0
 18 19  2  0
 18 20  1  0
 20 21  1  0
 21 22  2  0
 21 23  1  0
 16 23  1  0
  5 24  1  0
  8 25  1  0
 11 26  1  0
 17 27  1  0
 20 28  1  0
 23 29  1  0
M  CHG  3   1  -1  12   2  13  -1
M  END
$$$$
