
     RDKit          3D

 29 28  0  0  0  0  0  0  0  0999 V2000
    2.8259   -1.5181    0.0279 O   0  0  0  0  0  0  0  0  0  0  0  0
    2.3955   -0.3344   -0.0295 C   0  0  0  0  0  0  0  0  0  0  0  0
    3.0199    0.7672   -0.1035 O   0  0  0  0  0  0  0  0  0  0  0  0
    0.8451   -0.1581   -0.0082 C   0  0  0  0  0  0  0  0  0  0  0  0
    0.0352   -1.2209    0.0674 C   0  0  0  0  0  0  0  0  0  0  0  0
   -1.4224   -1.0063    0.0848 C   0  0  0  0  0  0  0  0  0  0  0  0
   -2.2106   -1.9454    0.1530 O   0  0  0  0  0  0  0  0  0  0  0  0
   -1.8443    0.2933    0.0207 N   0  0  0  0  0  0  0  0  0  0  0  0
   -1.0258    1.3871   -0.0568 C   0  0  0  0  0  0  0  0  0  0  0  0
   -1.4825    2.5260   -0.1111 O   0  0  0  0  0  0  0  0  0  0  0  0
    0.3076    1.1138   -0.0683 N   0  0  0  0  0  0  0  0  0  0  0  0
    0.0000    0.0000    0.0000 Mg  0  0  0  0  0 15  0  0  0  0  0  0
    2.6553   -1.5962    0.3470 O   0  0  0  0  0  0  0  0  0  0  0  0
    2.3783   -0.3621    0.2518 C   0  0  0  0  0  0  0  0  0  0  0  0
    3.1298    0.6501    0.2690 O   0  0  0  0  0  0  0  0  0  0  0  0
    0.8506   -0.0892    0.0878 C   0  0  0  0  0  0  0  0  0  0  0  0
    0.3857    1.1605   -0.0266 C   0  0  0  0  0  0  0  0  0  0  0  0
   -1.0646    1.3702   -0.1795 C   0  0  0  0  0  0  0  0  0  0  0  0
   -1.5445    2.4952   -0.2884 O   0  0  0  0  0  0  0  0  0  0  0  0
   -1.8415    0.2444   -0.1929 N   0  0  0  0  0  0  0  0  0  0  0  0
   -1.3773   -1.0375   -0.0768 C   0  0  0  0  0  0  0  0  0  0  0  0
   -2.1409   -1.9993   -0.0981 O   0  0  0  0  0  0  0  0  0  0  0  0
   -0.0283   -1.1555    0.0611 N   0  0  0  0  0  0  0  0  0  0  0  0
    0.4033   -2.2378    0.1168 H   0  0  0  0  0  0  0  0  0  0  0  0
   -2.8342    0.4624    0.0312 H   0  0  0  0  0  0  0  0  0  0  0  0
    0.9874    1.8713   -0.1243 H   0  0  0  0  0  0  0  0  0  0  0  0
    1.0298    2.0306   -0.0119 H   0  0  0  0  0  0  0  0  0  0  0  0
   -2.8332    0.3644   -0.2962 H   0  0  0  0  0  0  0  0  0  0  0  0
    0.4007   -2.0755    0.1538 H   0  0  0  0  0  0  0  0  0  0  0  0
  1  2  1  0
  2  3  2  0
  2  4  1  0
  4  5  2  0
  5  6  1  0
  6  7  2  0
  6  8  1  0
  8  9  1  0
  9 10  2  0
  9 11  1  0
  4 11  1  0
 13 14  1  0
 14 15  2  0
 14 16  1  0
 16 17  2  0
 17 18  1  0
 18 19  2  0
 18 20  1  0
 20 21  1  0
 21 22  2  0
 21 23  1  0
 16 23  1  0
  5 24  1  0
  8 25  1  0
 11 26  1  0
 17 27  1  0
 20 28  1  0
 23 29  1  0
M  CHG  3   1  -1  12   2  13  -1
M  END
$$$$
