adomet.pdb
 OpenBabel11072412263D

 27 29  0  0  1  0  0  0  0  0999 V2000
   47.8340    9.3900   14.1270 N   0  0  0  0  0  0  0  0  0  0  0  0
   47.4430    8.0150   13.8070 C   0  0  2  0  0  0  0  0  0  0  0  0
   48.5950    7.1400   13.2310 C   0  0  0  0  0  0  0  0  0  0  0  0
   48.7100    5.9120   13.4740 O   0  0  0  0  0  0  0  0  0  0  0  0
   46.3820    8.0310   12.6860 C   0  0  0  0  0  0  0  0  0  0  0  0
   45.1950    7.0730   12.8740 C   0  0  0  0  0  0  0  0  0  0  0  0
   44.4320    6.9320   11.2570 S   0  0  2  0  0  0  0  0  0  0  0  0
   43.7850    8.6100   11.2230 C   0  0  0  0  0  0  0  0  0  0  0  0
   42.8730    6.0740   11.6920 C   0  0  0  0  0  0  0  0  0  0  0  0
   42.8190    4.5480   11.6090 C   0  0  1  0  0  0  0  0  0  0  0  0
   43.1510    4.1610   10.2700 O   0  0  0  0  0  0  0  0  0  0  0  0
   43.8790    4.0360   12.5390 C   0  0  1  0  0  0  0  0  0  0  0  0
   43.3880    3.0180   13.3630 O   0  0  0  0  0  0  0  0  0  0  0  0
   44.8810    3.4180   11.6320 C   0  0  1  0  0  0  0  0  0  0  0  0
   45.8140    2.4350   12.2410 O   0  0  0  0  0  0  0  0  0  0  0  0
   44.1120    3.1480   10.2800 C   0  0  2  0  0  0  0  0  0  0  0  0
   49.4340    7.6350   12.4520 O   0  0  0  0  0  0  0  0  0  0  0  0
   47.3740    0.9760    6.8750 N   0  0  0  0  0  0  0  0  0  0  0  0
   46.5350    0.4050    7.7960 C   0  0  0  0  0  0  0  0  0  0  0  0
   45.6870    1.1090    8.6310 N   0  0  0  0  0  0  0  0  0  0  0  0
   45.7290    2.4330    8.5130 C   0  0  0  0  0  0  0  0  0  0  0  0
   46.5210    3.0400    7.5430 C   0  0  0  0  0  0  0  0  0  0  0  0
   47.3750    2.3230    6.7290 C   0  0  0  0  0  0  0  0  0  0  0  0
   48.2110    2.9130    5.8350 N   0  0  0  0  0  0  0  0  0  0  0  0
   46.3100    4.3890    7.6610 N   0  0  0  0  0  0  0  0  0  0  0  0
   45.4360    4.6340    8.6450 C   0  0  0  0  0  0  0  0  0  0  0  0
   45.0630    3.4040    9.1720 N   0  0  0  0  0  0  0  0  0  0  0  0
  2  1  1  6  0  0  0
  2  3  1  0  0  0  0
  2  5  1  0  0  0  0
  3  4  2  0  0  0  0
  3 17  1  0  0  0  0
  5  6  1  0  0  0  0
  6  7  1  0  0  0  0
  7  8  1  1  0  0  0
  7  9  1  0  0  0  0
 10  9  1  6  0  0  0
 10 11  1  0  0  0  0
 10 12  1  0  0  0  0
 11 16  1  0  0  0  0
 12 13  1  1  0  0  0
 12 14  1  0  0  0  0
 14 15  1  1  0  0  0
 14 16  1  0  0  0  0
 16 27  1  6  0  0  0
 18 19  2  0  0  0  0
 18 23  1  0  0  0  0
 19 20  1  0  0  0  0
 20 21  2  0  0  0  0
 21 22  1  0  0  0  0
 21 27  1  0  0  0  0
 22 23  2  0  0  0  0
 22 25  1  0  0  0  0
 23 24  1  0  0  0  0
 25 26  2  0  0  0  0
 26 27  1  0  0  0  0
M  END
$$$$
