
     RDKit          3D

 67 71  0  0  0  0  0  0  0  0999 V2000
   -6.4471   -0.2630    3.4972 C   0  0  0  0  0  0  0  0  0  0  0  0
   -5.1451   -0.5183    3.0477 C   0  0  0  0  0  0  0  0  0  0  0  0
   -4.5757    0.2440    2.0095 C   0  0  0  0  0  0  0  0  0  0  0  0
   -5.3584    1.2533    1.4190 C   0  0  0  0  0  0  0  0  0  0  0  0
   -6.6551    1.5115    1.8683 C   0  0  0  0  0  0  0  0  0  0  0  0
   -7.1985    0.7568    2.9073 C   0  0  0  0  0  0  0  0  0  0  0  0
   -2.3521    2.3062    2.0665 C   0  0  0  0  0  0  0  0  0  0  0  0
   -2.1841    1.1005    1.3575 C   0  0  0  0  0  0  0  0  0  0  0  0
   -3.1564   -0.0800    1.5311 C   0  0  2  0  0  0  0  0  0  0  0  0
   -1.0183    0.9536    0.5654 C   0  0  0  0  0  0  0  0  0  0  0  0
   -0.0926    1.9907    0.4309 C   0  0  0  0  0  0  0  0  0  0  0  0
   -0.3340    3.1898    1.1075 C   0  0  0  0  0  0  0  0  0  0  0  0
   -1.4426    3.3536    1.9267 C   0  0  0  0  0  0  0  0  0  0  0  0
    0.5406    4.2010    0.9859 F   0  0  0  0  0  0  0  0  0  0  0  0
    1.1203   -0.2829   -1.0411 O   0  0  0  0  0  0  0  0  0  0  0  0
    1.6277    0.8296   -0.9843 C   0  0  0  0  0  0  0  0  0  0  0  0
    1.0946    1.9222   -0.3302 N   0  0  0  0  0  0  0  0  0  0  0  0
   -7.0060   -1.0459    4.5602 C   0  0  0  0  0  0  0  0  0  0  0  0
   -7.4501   -1.6848    5.4220 N   0  0  0  0  0  0  0  0  0  0  0  0
   -3.1737   -1.0306    0.4058 N   0  0  0  0  0  0  0  0  0  0  0  0
   -3.7501   -0.5251   -0.8339 C   0  0  0  0  0  0  0  0  0  0  0  0
   -3.4387   -1.5382   -1.8949 C   0  0  0  0  0  0  0  0  0  0  0  0
   -4.3427   -2.7270   -2.1205 C   0  0  0  0  0  0  0  0  0  0  0  0
   -4.2873   -1.6206   -3.1392 C   0  0  0  0  0  0  0  0  0  0  0  0
    2.8963    1.1272   -1.6003 C   0  0  0  0  0  0  0  0  0  0  0  0
    3.1660    2.1616   -2.4810 C   0  0  0  0  0  0  0  0  0  0  0  0
    4.4952    1.9793   -2.9097 C   0  0  0  0  0  0  0  0  0  0  0  0
    5.0323    0.9000   -2.3216 N   0  0  0  0  0  0  0  0  0  0  0  0
    4.0769    0.4033   -1.4802 N   0  0  0  0  0  0  0  0  0  0  0  0
    5.2444    2.8280   -3.9032 C   0  0  0  0  0  0  0  0  0  0  0  0
    4.6669    4.0550   -4.0401 F   0  0  0  0  0  0  0  0  0  0  0  0
    6.5361    3.0498   -3.5454 F   0  0  0  0  0  0  0  0  0  0  0  0
    5.2596    2.2722   -5.1433 F   0  0  0  0  0  0  0  0  0  0  0  0
    4.4445   -0.6663   -0.5985 C   0  0  0  0  0  0  0  0  0  0  0  0
    5.6763   -1.3192   -0.8038 C   0  0  0  0  0  0  0  0  0  0  0  0
    3.6542   -1.0614    0.4863 C   0  0  0  0  0  0  0  0  0  0  0  0
    4.0714   -2.0987    1.3276 C   0  0  0  0  0  0  0  0  0  0  0  0
    5.2833   -2.7459    1.1038 C   0  0  0  0  0  0  0  0  0  0  0  0
    6.0979   -2.3663    0.0332 C   0  0  0  0  0  0  0  0  0  0  0  0
    7.4291   -3.0372   -0.1906 C   0  0  0  0  0  0  0  0  0  0  0  0
    8.5031   -2.3105    0.4771 N   0  0  0  0  0  0  0  0  0  0  0  0
   -4.5666   -1.3186    3.5105 H   0  0  0  0  0  0  0  0  0  0  0  0
   -4.9575    1.8498    0.5996 H   0  0  0  0  0  0  0  0  0  0  0  0
   -7.2434    2.3014    1.4051 H   0  0  0  0  0  0  0  0  0  0  0  0
   -8.2107    0.9663    3.2481 H   0  0  0  0  0  0  0  0  0  0  0  0
   -3.1938    2.4477    2.7426 H   0  0  0  0  0  0  0  0  0  0  0  0
   -2.6856   -0.6372    2.3555 H   0  0  0  0  0  0  0  0  0  0  0  0
   -0.8573    0.0053    0.0576 H   0  0  0  0  0  0  0  0  0  0  0  0
   -1.5856    4.2875    2.4609 H   0  0  0  0  0  0  0  0  0  0  0  0
    1.6491    2.7726   -0.3181 H   0  0  0  0  0  0  0  0  0  0  0  0
   -3.6866   -1.8632    0.6846 H   0  0  0  0  0  0  0  0  0  0  0  0
   -3.3140    0.4344   -1.1320 H   0  0  0  0  0  0  0  0  0  0  0  0
   -4.8344   -0.3961   -0.7442 H   0  0  0  0  0  0  0  0  0  0  0  0
   -2.3693   -1.6810   -2.0175 H   0  0  0  0  0  0  0  0  0  0  0  0
   -5.2425   -2.8184   -1.5232 H   0  0  0  0  0  0  0  0  0  0  0  0
   -3.8754   -3.6730   -2.3701 H   0  0  0  0  0  0  0  0  0  0  0  0
   -5.1480   -0.9681   -3.2297 H   0  0  0  0  0  0  0  0  0  0  0  0
   -3.7867   -1.8235   -4.0801 H   0  0  0  0  0  0  0  0  0  0  0  0
    2.4718    2.9222   -2.8162 H   0  0  0  0  0  0  0  0  0  0  0  0
    6.3278   -1.0229   -1.6252 H   0  0  0  0  0  0  0  0  0  0  0  0
    2.7163   -0.5843    0.7436 H   0  0  0  0  0  0  0  0  0  0  0  0
    3.4470   -2.3960    2.1677 H   0  0  0  0  0  0  0  0  0  0  0  0
    5.5923   -3.5461    1.7732 H   0  0  0  0  0  0  0  0  0  0  0  0
    7.3987   -4.0683    0.1799 H   0  0  0  0  0  0  0  0  0  0  0  0
    7.6431   -3.1038   -1.2641 H   0  0  0  0  0  0  0  0  0  0  0  0
    8.5508   -1.3698    0.0837 H   0  0  0  0  0  0  0  0  0  0  0  0
    8.2523   -2.1838    1.4576 H   0  0  0  0  0  0  0  0  0  0  0  0
  1  2  2  0
  2  3  1  0
  3  4  2  0
  4  5  1  0
  5  6  2  0
  1  6  1  0
  7  8  2  0
  8  9  1  0
  9  3  1  0
 10 11  2  0
 11 12  1  0
 12 13  2  0
  7 13  1  0
  8 10  1  0
 15 16  2  0
 16 17  1  0
 14 12  1  0
 17 11  1  0
  1 18  1  0
 18 19  3  0
  9 20  1  0
 20 21  1  0
 21 22  1  0
 22 23  1  0
 22 24  1  0
 23 24  1  0
 16 25  1  0
 26 27  1  0
 27 28  2  0
 28 29  1  0
 29 25  1  0
 26 25  2  0
 27 30  1  0
 30 31  1  0
 30 32  1  0
 30 33  1  0
 29 34  1  0
 36 37  1  0
 37 38  2  0
 38 39  1  0
 35 39  2  0
 35 34  1  0
 34 36  2  0
 39 40  1  0
 40 41  1  0
  2 42  1  0
  4 43  1  0
  5 44  1  0
  6 45  1  0
  7 46  1  0
  9 47  1  1
 10 48  1  0
 13 49  1  0
 17 50  1  0
 20 51  1  0
 21 52  1  0
 21 53  1  0
 22 54  1  0
 23 55  1  0
 23 56  1  0
 24 57  1  0
 24 58  1  0
 26 59  1  0
 35 60  1  0
 36 61  1  0
 37 62  1  0
 38 63  1  0
 40 64  1  0
 40 65  1  0
 41 66  1  0
 41 67  1  0
M  END
$$$$
