
     RDKit          3D

 67 71  0  0  0  0  0  0  0  0999 V2000
   -4.8045   -3.0068    1.4783 C   0  0  0  0  0  0  0  0  0  0  0  0
   -4.0112   -2.0456    0.8387 C   0  0  0  0  0  0  0  0  0  0  0  0
   -4.5876   -1.0889   -0.0167 C   0  0  0  0  0  0  0  0  0  0  0  0
   -5.9831   -1.1033   -0.1880 C   0  0  0  0  0  0  0  0  0  0  0  0
   -6.7758   -2.0581    0.4521 C   0  0  0  0  0  0  0  0  0  0  0  0
   -6.1876   -3.0122    1.2807 C   0  0  0  0  0  0  0  0  0  0  0  0
   -2.8600   -1.1219   -2.8328 C   0  0  0  0  0  0  0  0  0  0  0  0
   -2.5982   -0.6463   -1.5336 C   0  0  0  0  0  0  0  0  0  0  0  0
   -3.7478   -0.0262   -0.7304 C   0  0  2  0  0  0  0  0  0  0  0  0
   -1.3007   -0.8115   -1.0041 C   0  0  0  0  0  0  0  0  0  0  0  0
   -0.2886   -1.4210   -1.7495 C   0  0  0  0  0  0  0  0  0  0  0  0
   -0.5892   -1.8785   -3.0369 C   0  0  0  0  0  0  0  0  0  0  0  0
   -1.8579   -1.7341   -3.5832 C   0  0  0  0  0  0  0  0  0  0  0  0
    0.3691   -2.4725   -3.7661 F   0  0  0  0  0  0  0  0  0  0  0  0
    1.0136   -0.5224    0.7419 O   0  0  0  0  0  0  0  0  0  0  0  0
    1.5929   -1.1926   -0.1039 C   0  0  0  0  0  0  0  0  0  0  0  0
    1.0311   -1.6244   -1.2893 N   0  0  0  0  0  0  0  0  0  0  0  0
   -4.1970   -3.9874    2.3293 C   0  0  0  0  0  0  0  0  0  0  0  0
   -3.7046   -4.7876    3.0102 N   0  0  0  0  0  0  0  0  0  0  0  0
   -3.3682    1.0137    0.2323 N   0  0  0  0  0  0  0  0  0  0  0  0
   -2.8016    2.2260   -0.3463 C   0  0  0  0  0  0  0  0  0  0  0  0
   -3.8297    2.9965   -1.1181 C   0  0  0  0  0  0  0  0  0  0  0  0
   -5.0518    3.5561   -0.4326 C   0  0  0  0  0  0  0  0  0  0  0  0
   -3.9772    4.4859   -0.9214 C   0  0  0  0  0  0  0  0  0  0  0  0
    2.9659   -1.6100    0.0509 C   0  0  0  0  0  0  0  0  0  0  0  0
    3.4853   -2.8754   -0.1741 C   0  0  0  0  0  0  0  0  0  0  0  0
    4.8182   -2.8442    0.2863 C   0  0  0  0  0  0  0  0  0  0  0  0
    5.1214   -1.6252    0.7556 N   0  0  0  0  0  0  0  0  0  0  0  0
    4.0189   -0.8474    0.5431 N   0  0  0  0  0  0  0  0  0  0  0  0
    5.7873   -3.9973    0.3070 C   0  0  0  0  0  0  0  0  0  0  0  0
    5.7032   -4.7104    1.4605 F   0  0  0  0  0  0  0  0  0  0  0  0
    7.0829   -3.6138    0.1663 F   0  0  0  0  0  0  0  0  0  0  0  0
    5.5318   -4.8730   -0.7055 F   0  0  0  0  0  0  0  0  0  0  0  0
    4.1346    0.5625    0.7662 C   0  0  0  0  0  0  0  0  0  0  0  0
    5.2468    1.0446    1.4836 C   0  0  0  0  0  0  0  0  0  0  0  0
    3.2156    1.4852    0.2555 C   0  0  0  0  0  0  0  0  0  0  0  0
    3.3889    2.8544    0.4830 C   0  0  0  0  0  0  0  0  0  0  0  0
    4.4842    3.3186    1.2088 C   0  0  0  0  0  0  0  0  0  0  0  0
    5.4239    2.4182    1.7192 C   0  0  0  0  0  0  0  0  0  0  0  0
    6.6338    2.9139    2.4680 C   0  0  0  0  0  0  0  0  0  0  0  0
    7.7537    3.1460    1.5634 N   0  0  0  0  0  0  0  0  0  0  0  0
   -2.9365   -2.0453    1.0110 H   0  0  0  0  0  0  0  0  0  0  0  0
   -6.4643   -0.3580   -0.8192 H   0  0  0  0  0  0  0  0  0  0  0  0
   -7.8537   -2.0545    0.3066 H   0  0  0  0  0  0  0  0  0  0  0  0
   -6.8151   -3.7526    1.7734 H   0  0  0  0  0  0  0  0  0  0  0  0
   -3.8559   -1.0257   -3.2623 H   0  0  0  0  0  0  0  0  0  0  0  0
   -4.4123    0.4435   -1.4681 H   0  0  0  0  0  0  0  0  0  0  0  0
   -1.1036   -0.4682    0.0053 H   0  0  0  0  0  0  0  0  0  0  0  0
   -2.0596   -2.1033   -4.5837 H   0  0  0  0  0  0  0  0  0  0  0  0
    1.6349   -2.1102   -1.9454 H   0  0  0  0  0  0  0  0  0  0  0  0
   -2.7268    0.6280    0.9200 H   0  0  0  0  0  0  0  0  0  0  0  0
   -1.9331    2.0187   -0.9804 H   0  0  0  0  0  0  0  0  0  0  0  0
   -2.4307    2.8419    0.4816 H   0  0  0  0  0  0  0  0  0  0  0  0
   -3.9425    2.6250   -2.1304 H   0  0  0  0  0  0  0  0  0  0  0  0
   -5.1527    3.4083    0.6370 H   0  0  0  0  0  0  0  0  0  0  0  0
   -5.9905    3.5293   -0.9729 H   0  0  0  0  0  0  0  0  0  0  0  0
   -3.3650    4.9809   -0.1763 H   0  0  0  0  0  0  0  0  0  0  0  0
   -4.1915    5.0947   -1.7929 H   0  0  0  0  0  0  0  0  0  0  0  0
    2.9511   -3.7387   -0.5516 H   0  0  0  0  0  0  0  0  0  0  0  0
    5.9901    0.3516    1.8779 H   0  0  0  0  0  0  0  0  0  0  0  0
    2.3643    1.1960   -0.3492 H   0  0  0  0  0  0  0  0  0  0  0  0
    2.6670    3.5626    0.0830 H   0  0  0  0  0  0  0  0  0  0  0  0
    4.6047    4.3878    1.3690 H   0  0  0  0  0  0  0  0  0  0  0  0
    6.3939    3.8421    3.0001 H   0  0  0  0  0  0  0  0  0  0  0  0
    6.9254    2.1876    3.2353 H   0  0  0  0  0  0  0  0  0  0  0  0
    7.9616    2.2755    1.0751 H   0  0  0  0  0  0  0  0  0  0  0  0
    7.4598    3.7994    0.8388 H   0  0  0  0  0  0  0  0  0  0  0  0
  1  2  2  0
  2  3  1  0
  3  4  2  0
  4  5  1  0
  5  6  2  0
  1  6  1  0
  7  8  2  0
  8  9  1  0
  9  3  1  0
 10 11  2  0
 11 12  1  0
 12 13  2  0
  7 13  1  0
  8 10  1  0
 15 16  2  0
 16 17  1  0
 14 12  1  0
 17 11  1  0
  1 18  1  0
 18 19  3  0
  9 20  1  0
 20 21  1  0
 21 22  1  0
 22 23  1  0
 22 24  1  0
 23 24  1  0
 16 25  1  0
 26 27  1  0
 27 28  2  0
 28 29  1  0
 29 25  1  0
 26 25  2  0
 27 30  1  0
 30 31  1  0
 30 32  1  0
 30 33  1  0
 29 34  1  0
 36 37  1  0
 37 38  2  0
 38 39  1  0
 35 39  2  0
 35 34  1  0
 34 36  2  0
 39 40  1  0
 40 41  1  0
  2 42  1  0
  4 43  1  0
  5 44  1  0
  6 45  1  0
  7 46  1  0
  9 47  1  6
 10 48  1  0
 13 49  1  0
 17 50  1  0
 20 51  1  0
 21 52  1  0
 21 53  1  0
 22 54  1  0
 23 55  1  0
 23 56  1  0
 24 57  1  0
 24 58  1  0
 26 59  1  0
 35 60  1  0
 36 61  1  0
 37 62  1  0
 38 63  1  0
 40 64  1  0
 40 65  1  0
 41 66  1  0
 41 67  1  0
M  END
$$$$
