
     RDKit          3D

 87 92  0  0  0  0  0  0  0  0999 V2000
    0.6059   -0.1296   -0.8372 N   0  0  0  0  0  0  0  0  0  0  0  0
    1.1366   -1.2061   -1.6761 C   0  0  0  0  0  0  0  0  0  0  0  0
    2.6477   -1.3398   -1.4807 C   0  0  0  0  0  0  0  0  0  0  0  0
    3.3987   -0.0147   -1.6567 C   0  0  0  0  0  0  0  0  0  0  0  0
    2.4574    1.1231   -2.0441 C   0  0  0  0  0  0  0  0  0  0  0  0
    1.2170    1.1783   -1.1475 C   0  0  0  0  0  0  0  0  0  0  0  0
    4.1557    0.3202   -0.4546 N   0  0  0  0  0  0  0  0  0  0  0  0
   -0.8650   -0.0263   -0.8768 C   0  0  0  0  0  0  0  0  0  0  0  0
   -1.6002   -1.2636   -0.3369 C   0  0  0  0  0  0  0  0  0  0  0  0
   -3.1272   -1.1058   -0.3730 C   0  0  0  0  0  0  0  0  0  0  0  0
   -3.6747   -0.2260    0.7645 C   0  0  0  0  0  0  0  0  0  0  0  0
   -5.2045    0.0370    0.7262 C   0  0  0  0  0  0  0  0  0  0  0  0
   -5.6420    0.8654    1.9667 C   0  0  0  0  0  0  0  0  0  0  0  0
   -6.0211   -1.2623    0.6507 C   0  0  0  0  0  0  0  0  0  0  0  0
   -6.7889   -1.2869   -0.5353 C   0  0  0  0  0  0  0  0  0  0  0  0
   -6.5480   -0.0702   -1.2829 C   0  0  0  0  0  0  0  0  0  0  0  0
   -5.6284    0.7358   -0.5750 C   0  0  0  0  0  0  0  0  0  0  0  0
   -7.0667    0.3580   -2.4930 C   0  0  0  0  0  0  0  0  0  0  0  0
   -6.6618    1.6008   -2.9899 C   0  0  0  0  0  0  0  0  0  0  0  0
   -5.7511    2.4003   -2.2805 C   0  0  0  0  0  0  0  0  0  0  0  0
   -5.2244    1.9711   -1.0622 C   0  0  0  0  0  0  0  0  0  0  0  0
   -6.0757   -2.3016    1.5693 C   0  0  0  0  0  0  0  0  0  0  0  0
   -6.9108   -3.3832    1.2873 C   0  0  0  0  0  0  0  0  0  0  0  0
   -7.6708   -3.4153    0.1065 C   0  0  0  0  0  0  0  0  0  0  0  0
   -7.6141   -2.3635   -0.8134 C   0  0  0  0  0  0  0  0  0  0  0  0
   -4.8640    1.1927    2.8621 O   0  0  0  0  0  0  0  0  0  0  0  0
   -6.9797    1.2159    2.0199 N   0  0  0  0  0  0  0  0  0  0  0  0
   -7.5518    1.8057    3.2281 C   0  0  0  0  0  0  0  0  0  0  0  0
    5.3262    1.0488   -0.5132 C   0  0  0  0  0  0  0  0  0  0  0  0
    5.9089    1.3928    0.8053 C   0  0  0  0  0  0  0  0  0  0  0  0
    5.8640    1.4187   -1.5489 O   0  0  0  0  0  0  0  0  0  0  0  0
    7.2149    0.9936    1.1497 C   0  0  0  0  0  0  0  0  0  0  0  0
    7.7140    1.3937    2.4034 C   0  0  0  0  0  0  0  0  0  0  0  0
    6.9408    2.1587    3.2810 C   0  0  0  0  0  0  0  0  0  0  0  0
    5.6513    2.5427    2.9230 C   0  0  0  0  0  0  0  0  0  0  0  0
    5.1325    2.1635    1.6858 C   0  0  0  0  0  0  0  0  0  0  0  0
    8.0567    0.1649    0.2756 C   0  0  0  0  0  0  0  0  0  0  0  0
    9.1240    0.7301   -0.4369 C   0  0  0  0  0  0  0  0  0  0  0  0
    9.9306   -0.0564   -1.2651 C   0  0  0  0  0  0  0  0  0  0  0  0
    9.6870   -1.4301   -1.4002 C   0  0  0  0  0  0  0  0  0  0  0  0
    8.6270   -2.0017   -0.6806 C   0  0  0  0  0  0  0  0  0  0  0  0
    7.8200   -1.2115    0.1434 C   0  0  0  0  0  0  0  0  0  0  0  0
   10.5583   -2.2912   -2.2798 C   0  0  0  0  0  0  0  0  0  0  0  0
   -7.9529    0.7962    4.3067 C   0  0  0  0  0  0  0  0  0  0  0  0
   -8.4787    1.4297    5.3808 F   0  0  0  0  0  0  0  0  0  0  0  0
   -8.9020   -0.0484    3.8351 F   0  0  0  0  0  0  0  0  0  0  0  0
   -6.9169    0.0479    4.7360 F   0  0  0  0  0  0  0  0  0  0  0  0
   11.2791   -1.5840   -3.1951 F   0  0  0  0  0  0  0  0  0  0  0  0
   11.4692   -3.0056   -1.5610 F   0  0  0  0  0  0  0  0  0  0  0  0
    9.8476   -3.2092   -2.9951 F   0  0  0  0  0  0  0  0  0  0  0  0
    0.8967   -1.0392   -2.7345 H   0  0  0  0  0  0  0  0  0  0  0  0
    0.7029   -2.1726   -1.4003 H   0  0  0  0  0  0  0  0  0  0  0  0
    2.8490   -1.7751   -0.4929 H   0  0  0  0  0  0  0  0  0  0  0  0
    3.0266   -2.0665   -2.2109 H   0  0  0  0  0  0  0  0  0  0  0  0
    4.1289   -0.1383   -2.4664 H   0  0  0  0  0  0  0  0  0  0  0  0
    2.1368    0.9781   -3.0845 H   0  0  0  0  0  0  0  0  0  0  0  0
    2.9740    2.0899   -2.0141 H   0  0  0  0  0  0  0  0  0  0  0  0
    0.4998    1.8513   -1.6356 H   0  0  0  0  0  0  0  0  0  0  0  0
    1.4814    1.6513   -0.1943 H   0  0  0  0  0  0  0  0  0  0  0  0
    3.7298    0.1341    0.4451 H   0  0  0  0  0  0  0  0  0  0  0  0
   -1.1627    0.8344   -0.2670 H   0  0  0  0  0  0  0  0  0  0  0  0
   -1.2002    0.1784   -1.9024 H   0  0  0  0  0  0  0  0  0  0  0  0
   -1.3593   -2.1352   -0.9561 H   0  0  0  0  0  0  0  0  0  0  0  0
   -1.2679   -1.4902    0.6839 H   0  0  0  0  0  0  0  0  0  0  0  0
   -3.5652   -2.1079   -0.2899 H   0  0  0  0  0  0  0  0  0  0  0  0
   -3.4240   -0.7123   -1.3521 H   0  0  0  0  0  0  0  0  0  0  0  0
   -3.4144   -0.7060    1.7180 H   0  0  0  0  0  0  0  0  0  0  0  0
   -3.1524    0.7386    0.7635 H   0  0  0  0  0  0  0  0  0  0  0  0
   -7.7698   -0.2498   -3.0525 H   0  0  0  0  0  0  0  0  0  0  0  0
   -7.0566    1.9540   -3.9397 H   0  0  0  0  0  0  0  0  0  0  0  0
   -5.4533    3.3643   -2.6876 H   0  0  0  0  0  0  0  0  0  0  0  0
   -4.5224    2.5932   -0.5154 H   0  0  0  0  0  0  0  0  0  0  0  0
   -5.4924   -2.2791    2.4853 H   0  0  0  0  0  0  0  0  0  0  0  0
   -6.9742   -4.2128    1.9885 H   0  0  0  0  0  0  0  0  0  0  0  0
   -8.3135   -4.2702   -0.0922 H   0  0  0  0  0  0  0  0  0  0  0  0
   -8.2096   -2.4002   -1.7194 H   0  0  0  0  0  0  0  0  0  0  0  0
   -7.6124    0.7823    1.3543 H   0  0  0  0  0  0  0  0  0  0  0  0
   -6.8344    2.5194    3.6471 H   0  0  0  0  0  0  0  0  0  0  0  0
   -8.4363    2.3673    2.9119 H   0  0  0  0  0  0  0  0  0  0  0  0
    8.7181    1.0995    2.7049 H   0  0  0  0  0  0  0  0  0  0  0  0
    7.3503    2.4557    4.2444 H   0  0  0  0  0  0  0  0  0  0  0  0
    5.0546    3.1452    3.6034 H   0  0  0  0  0  0  0  0  0  0  0  0
    4.1360    2.4912    1.3989 H   0  0  0  0  0  0  0  0  0  0  0  0
    9.3219    1.7980   -0.3627 H   0  0  0  0  0  0  0  0  0  0  0  0
   10.7450    0.4148   -1.8139 H   0  0  0  0  0  0  0  0  0  0  0  0
    8.4197   -3.0675   -0.7651 H   0  0  0  0  0  0  0  0  0  0  0  0
    6.9993   -1.6776    0.6850 H   0  0  0  0  0  0  0  0  0  0  0  0
  1  8  1  0
  8  9  1  0
  9 10  1  0
 10 11  1  0
 11 12  1  0
 12 13  1  0
 12 14  1  0
 14 15  2  0
 15 16  1  0
 16 17  1  0
 17 12  1  0
 16 18  2  0
 18 19  1  0
 19 20  2  0
 20 21  1  0
 21 17  2  0
 14 22  1  0
 22 23  2  0
 23 24  1  0
 24 25  2  0
 25 15  1  0
 13 26  2  0
 13 27  1  0
 27 28  1  0
  7 29  1  0
 29 30  1  0
 29 31  2  0
 30 32  1  0
 32 33  2  0
 33 34  1  0
 34 35  2  0
 35 36  1  0
 36 30  2  0
 32 37  1  0
 37 38  2  0
 38 39  1  0
 39 40  2  0
 40 41  1  0
 41 42  2  0
 42 37  1  0
 40 43  1  0
 28 44  1  0
  1  2  1  0
  2  3  1  0
 44 45  1  0
  3  4  1  0
 44 46  1  0
  4  5  1  0
 44 47  1  0
  5  6  1  0
 43 48  1  0
  6  1  1  0
 43 49  1  0
  4  7  1  0
 43 50  1  0
  2 51  1  0
  2 52  1  0
  3 53  1  0
  3 54  1  0
  4 55  1  0
  5 56  1  0
  5 57  1  0
  6 58  1  0
  6 59  1  0
  7 60  1  0
  8 61  1  0
  8 62  1  0
  9 63  1  0
  9 64  1  0
 10 65  1  0
 10 66  1  0
 11 67  1  0
 11 68  1  0
 18 69  1  0
 19 70  1  0
 20 71  1  0
 21 72  1  0
 22 73  1  0
 23 74  1  0
 24 75  1  0
 25 76  1  0
 27 77  1  0
 28 78  1  0
 28 79  1  0
 33 80  1  0
 34 81  1  0
 35 82  1  0
 36 83  1  0
 38 84  1  0
 39 85  1  0
 41 86  1  0
 42 87  1  0
M  END
$$$$
