
     RDKit          3D

 87 92  0  0  0  0  0  0  0  0999 V2000
    0.0938    2.0132    1.5257 N   0  0  0  0  0  0  0  0  0  0  0  0
    0.7821    2.5447    0.3547 C   0  0  0  0  0  0  0  0  0  0  0  0
    1.7151    1.5534   -0.3417 C   0  0  0  0  0  0  0  0  0  0  0  0
    2.6707    0.8936    0.6534 C   0  0  0  0  0  0  0  0  0  0  0  0
    1.8866    0.2714    1.8108 C   0  0  0  0  0  0  0  0  0  0  0  0
    0.9632    1.2987    2.4573 C   0  0  0  0  0  0  0  0  0  0  0  0
    3.4967   -0.1040   -0.0168 N   0  0  0  0  0  0  0  0  0  0  0  0
   -1.2312    1.4327    1.3132 C   0  0  0  0  0  0  0  0  0  0  0  0
   -1.3522    0.3085    0.2791 C   0  0  0  0  0  0  0  0  0  0  0  0
   -2.7139   -0.4000    0.3104 C   0  0  0  0  0  0  0  0  0  0  0  0
   -3.8936    0.5129   -0.0696 C   0  0  0  0  0  0  0  0  0  0  0  0
   -5.2786   -0.1880   -0.1359 C   0  0  0  0  0  0  0  0  0  0  0  0
   -6.4000    0.8592   -0.4338 C   0  0  0  0  0  0  0  0  0  0  0  0
   -5.5901   -0.9434    1.1714 C   0  0  0  0  0  0  0  0  0  0  0  0
   -5.8072   -2.3121    0.9076 C   0  0  0  0  0  0  0  0  0  0  0  0
   -5.6452   -2.5541   -0.5092 C   0  0  0  0  0  0  0  0  0  0  0  0
   -5.3125   -1.3426   -1.1582 C   0  0  0  0  0  0  0  0  0  0  0  0
   -5.7397   -3.7385   -1.2238 C   0  0  0  0  0  0  0  0  0  0  0  0
   -5.4908   -3.7139   -2.5980 C   0  0  0  0  0  0  0  0  0  0  0  0
   -5.1423   -2.5174   -3.2404 C   0  0  0  0  0  0  0  0  0  0  0  0
   -5.0440   -1.3230   -2.5227 C   0  0  0  0  0  0  0  0  0  0  0  0
   -5.6665   -0.4410    2.4648 C   0  0  0  0  0  0  0  0  0  0  0  0
   -5.9621   -1.3256    3.5030 C   0  0  0  0  0  0  0  0  0  0  0  0
   -6.1756   -2.6885    3.2432 C   0  0  0  0  0  0  0  0  0  0  0  0
   -6.0977   -3.1897    1.9403 C   0  0  0  0  0  0  0  0  0  0  0  0
   -7.3363    1.0967    0.3279 O   0  0  0  0  0  0  0  0  0  0  0  0
   -6.2851    1.5583   -1.6238 N   0  0  0  0  0  0  0  0  0  0  0  0
   -7.2219    2.6377   -1.9476 C   0  0  0  0  0  0  0  0  0  0  0  0
    4.6632   -0.5764    0.5496 C   0  0  0  0  0  0  0  0  0  0  0  0
    5.3347   -1.6549   -0.2184 C   0  0  0  0  0  0  0  0  0  0  0  0
    5.1260   -0.1771    1.6089 O   0  0  0  0  0  0  0  0  0  0  0  0
    6.6880   -1.5483   -0.5927 C   0  0  0  0  0  0  0  0  0  0  0  0
    7.2619   -2.6237   -1.2965 C   0  0  0  0  0  0  0  0  0  0  0  0
    6.5166   -3.7628   -1.6129 C   0  0  0  0  0  0  0  0  0  0  0  0
    5.1817   -3.8544   -1.2294 C   0  0  0  0  0  0  0  0  0  0  0  0
    4.5889   -2.8037   -0.5319 C   0  0  0  0  0  0  0  0  0  0  0  0
    7.5116   -0.3683   -0.2954 C   0  0  0  0  0  0  0  0  0  0  0  0
    8.4619   -0.4066    0.7359 C   0  0  0  0  0  0  0  0  0  0  0  0
    9.2406    0.7152    1.0341 C   0  0  0  0  0  0  0  0  0  0  0  0
    9.0944    1.9000    0.2994 C   0  0  0  0  0  0  0  0  0  0  0  0
    8.1463    1.9417   -0.7334 C   0  0  0  0  0  0  0  0  0  0  0  0
    7.3670    0.8187   -1.0294 C   0  0  0  0  0  0  0  0  0  0  0  0
    9.9074    3.1226    0.6443 C   0  0  0  0  0  0  0  0  0  0  0  0
   -6.8266    4.0142   -1.4128 C   0  0  0  0  0  0  0  0  0  0  0  0
   -5.6320    4.3880   -1.9369 F   0  0  0  0  0  0  0  0  0  0  0  0
   -6.7092    4.0462   -0.0724 F   0  0  0  0  0  0  0  0  0  0  0  0
   -7.7358    4.9490   -1.7739 F   0  0  0  0  0  0  0  0  0  0  0  0
    9.2668    3.9506    1.5145 F   0  0  0  0  0  0  0  0  0  0  0  0
   11.1043    2.8246    1.2237 F   0  0  0  0  0  0  0  0  0  0  0  0
   10.2056    3.8883   -0.4445 F   0  0  0  0  0  0  0  0  0  0  0  0
    0.0656    2.9548   -0.3684 H   0  0  0  0  0  0  0  0  0  0  0  0
    1.3835    3.4031    0.6841 H   0  0  0  0  0  0  0  0  0  0  0  0
    1.1357    0.7868   -0.8700 H   0  0  0  0  0  0  0  0  0  0  0  0
    2.2931    2.0798   -1.1126 H   0  0  0  0  0  0  0  0  0  0  0  0
    3.3481    1.6584    1.0573 H   0  0  0  0  0  0  0  0  0  0  0  0
    1.3146   -0.5951    1.4623 H   0  0  0  0  0  0  0  0  0  0  0  0
    2.5776   -0.1127    2.5712 H   0  0  0  0  0  0  0  0  0  0  0  0
    0.3822    0.8215    3.2564 H   0  0  0  0  0  0  0  0  0  0  0  0
    1.5876    2.0455    2.9661 H   0  0  0  0  0  0  0  0  0  0  0  0
    3.1626   -0.5223   -0.8745 H   0  0  0  0  0  0  0  0  0  0  0  0
   -1.6357    1.0906    2.2747 H   0  0  0  0  0  0  0  0  0  0  0  0
   -1.8933    2.2537    1.0100 H   0  0  0  0  0  0  0  0  0  0  0  0
   -1.1814    0.7048   -0.7286 H   0  0  0  0  0  0  0  0  0  0  0  0
   -0.5909   -0.4546    0.4614 H   0  0  0  0  0  0  0  0  0  0  0  0
   -2.6615   -1.2442   -0.3876 H   0  0  0  0  0  0  0  0  0  0  0  0
   -2.8641   -0.8233    1.3102 H   0  0  0  0  0  0  0  0  0  0  0  0
   -3.9574    1.3378    0.6519 H   0  0  0  0  0  0  0  0  0  0  0  0
   -3.6622    0.9747   -1.0372 H   0  0  0  0  0  0  0  0  0  0  0  0
   -5.9975   -4.6714   -0.7339 H   0  0  0  0  0  0  0  0  0  0  0  0
   -5.5624   -4.6333   -3.1742 H   0  0  0  0  0  0  0  0  0  0  0  0
   -4.9444   -2.5240   -4.3102 H   0  0  0  0  0  0  0  0  0  0  0  0
   -4.7589   -0.4147   -3.0399 H   0  0  0  0  0  0  0  0  0  0  0  0
   -5.5218    0.6159    2.6683 H   0  0  0  0  0  0  0  0  0  0  0  0
   -6.0369   -0.9543    4.5223 H   0  0  0  0  0  0  0  0  0  0  0  0
   -6.4102   -3.3604    4.0656 H   0  0  0  0  0  0  0  0  0  0  0  0
   -6.2636   -4.2454    1.7532 H   0  0  0  0  0  0  0  0  0  0  0  0
   -5.4264    1.5063   -2.1533 H   0  0  0  0  0  0  0  0  0  0  0  0
   -8.2158    2.3730   -1.5720 H   0  0  0  0  0  0  0  0  0  0  0  0
   -7.2816    2.6775   -3.0397 H   0  0  0  0  0  0  0  0  0  0  0  0
    8.3055   -2.5739   -1.6046 H   0  0  0  0  0  0  0  0  0  0  0  0
    6.9847   -4.5825   -2.1533 H   0  0  0  0  0  0  0  0  0  0  0  0
    4.6079   -4.7480   -1.4625 H   0  0  0  0  0  0  0  0  0  0  0  0
    3.5553   -2.8934   -0.2071 H   0  0  0  0  0  0  0  0  0  0  0  0
    8.5818   -1.3103    1.3318 H   0  0  0  0  0  0  0  0  0  0  0  0
    9.9550    0.6618    1.8549 H   0  0  0  0  0  0  0  0  0  0  0  0
    8.0031    2.8558   -1.3078 H   0  0  0  0  0  0  0  0  0  0  0  0
    6.6371    0.8796   -1.8336 H   0  0  0  0  0  0  0  0  0  0  0  0
  1  8  1  0
  8  9  1  0
  9 10  1  0
 10 11  1  0
 11 12  1  0
 12 13  1  0
 12 14  1  0
 14 15  2  0
 15 16  1  0
 16 17  1  0
 17 12  1  0
 16 18  2  0
 18 19  1  0
 19 20  2  0
 20 21  1  0
 21 17  2  0
 14 22  1  0
 22 23  2  0
 23 24  1  0
 24 25  2  0
 25 15  1  0
 13 26  2  0
 13 27  1  0
 27 28  1  0
  7 29  1  0
 29 30  1  0
 29 31  2  0
 30 32  1  0
 32 33  2  0
 33 34  1  0
 34 35  2  0
 35 36  1  0
 36 30  2  0
 32 37  1  0
 37 38  2  0
 38 39  1  0
 39 40  2  0
 40 41  1  0
 41 42  2  0
 42 37  1  0
 40 43  1  0
 28 44  1  0
  1  2  1  0
  2  3  1  0
 44 45  1  0
  3  4  1  0
 44 46  1  0
  4  5  1  0
 44 47  1  0
  5  6  1  0
 43 48  1  0
  6  1  1  0
 43 49  1  0
  4  7  1  0
 43 50  1  0
  2 51  1  0
  2 52  1  0
  3 53  1  0
  3 54  1  0
  4 55  1  0
  5 56  1  0
  5 57  1  0
  6 58  1  0
  6 59  1  0
  7 60  1  0
  8 61  1  0
  8 62  1  0
  9 63  1  0
  9 64  1  0
 10 65  1  0
 10 66  1  0
 11 67  1  0
 11 68  1  0
 18 69  1  0
 19 70  1  0
 20 71  1  0
 21 72  1  0
 22 73  1  0
 23 74  1  0
 24 75  1  0
 25 76  1  0
 27 77  1  0
 28 78  1  0
 28 79  1  0
 33 80  1  0
 34 81  1  0
 35 82  1  0
 36 83  1  0
 38 84  1  0
 39 85  1  0
 41 86  1  0
 42 87  1  0
M  END
$$$$
