
     RDKit          3D

 87 92  0  0  0  0  0  0  0  0999 V2000
    1.0738    0.4773   -0.6941 N   0  0  0  0  0  0  0  0  0  0  0  0
    1.8181    0.3292   -1.9568 C   0  0  0  0  0  0  0  0  0  0  0  0
    2.5124   -1.0220   -2.1043 C   0  0  0  0  0  0  0  0  0  0  0  0
    3.5167   -1.2545   -0.9673 C   0  0  0  0  0  0  0  0  0  0  0  0
    3.1410   -0.4824    0.3027 C   0  0  0  0  0  0  0  0  0  0  0  0
    1.6274   -0.3257    0.4085 C   0  0  0  0  0  0  0  0  0  0  0  0
    4.8726   -0.9093   -1.3758 N   0  0  0  0  0  0  0  0  0  0  0  0
   -0.3671    0.2437   -0.8884 C   0  0  0  0  0  0  0  0  0  0  0  0
   -1.2124    0.5717    0.3513 C   0  0  0  0  0  0  0  0  0  0  0  0
   -2.7076    0.4206    0.0502 C   0  0  0  0  0  0  0  0  0  0  0  0
   -3.5575    0.7156    1.2969 C   0  0  0  0  0  0  0  0  0  0  0  0
   -5.0913    0.5965    1.1064 C   0  0  0  0  0  0  0  0  0  0  0  0
   -5.8249    0.9130    2.4417 C   0  0  0  0  0  0  0  0  0  0  0  0
   -5.5049   -0.7823    0.5690 C   0  0  0  0  0  0  0  0  0  0  0  0
   -6.1693   -0.6428   -0.6707 C   0  0  0  0  0  0  0  0  0  0  0  0
   -6.2330    0.7608   -1.0211 C   0  0  0  0  0  0  0  0  0  0  0  0
   -5.6090    1.5211   -0.0067 C   0  0  0  0  0  0  0  0  0  0  0  0
   -6.7848    1.3872   -2.1260 C   0  0  0  0  0  0  0  0  0  0  0  0
   -6.7085    2.7813   -2.2101 C   0  0  0  0  0  0  0  0  0  0  0  0
   -6.0872    3.5326   -1.1989 C   0  0  0  0  0  0  0  0  0  0  0  0
   -5.5304    2.9049   -0.0842 C   0  0  0  0  0  0  0  0  0  0  0  0
   -5.3090   -2.0284    1.1480 C   0  0  0  0  0  0  0  0  0  0  0  0
   -5.7872   -3.1499    0.4696 C   0  0  0  0  0  0  0  0  0  0  0  0
   -6.4473   -3.0165   -0.7630 C   0  0  0  0  0  0  0  0  0  0  0  0
   -6.6423   -1.7582   -1.3412 C   0  0  0  0  0  0  0  0  0  0  0  0
   -5.2427    1.3214    3.4462 O   0  0  0  0  0  0  0  0  0  0  0  0
   -7.1947    0.7261    2.4350 N   0  0  0  0  0  0  0  0  0  0  0  0
   -8.0205    1.1176    3.5767 C   0  0  0  0  0  0  0  0  0  0  0  0
    5.6886   -1.7910   -2.0489 C   0  0  0  0  0  0  0  0  0  0  0  0
    7.0259   -1.2742   -2.4533 C   0  0  0  0  0  0  0  0  0  0  0  0
    5.3538   -2.9281   -2.3607 O   0  0  0  0  0  0  0  0  0  0  0  0
    7.8657   -0.5191   -1.6035 C   0  0  0  0  0  0  0  0  0  0  0  0
    9.0951   -0.0707   -2.1284 C   0  0  0  0  0  0  0  0  0  0  0  0
    9.4841   -0.3708   -3.4367 C   0  0  0  0  0  0  0  0  0  0  0  0
    8.6559   -1.1348   -4.2514 C   0  0  0  0  0  0  0  0  0  0  0  0
    7.4335   -1.5892   -3.7612 C   0  0  0  0  0  0  0  0  0  0  0  0
    7.5464   -0.2156   -0.1973 C   0  0  0  0  0  0  0  0  0  0  0  0
    7.3796   -1.2434    0.7439 C   0  0  0  0  0  0  0  0  0  0  0  0
    7.0491   -0.9553    2.0713 C   0  0  0  0  0  0  0  0  0  0  0  0
    6.8866    0.3714    2.4945 C   0  0  0  0  0  0  0  0  0  0  0  0
    7.0608    1.4027    1.5614 C   0  0  0  0  0  0  0  0  0  0  0  0
    7.3915    1.1120    0.2341 C   0  0  0  0  0  0  0  0  0  0  0  0
    6.5084    0.6670    3.9253 C   0  0  0  0  0  0  0  0  0  0  0  0
   -9.4108    0.4895    3.6016 C   0  0  0  0  0  0  0  0  0  0  0  0
  -10.1508    0.9854    4.6180 F   0  0  0  0  0  0  0  0  0  0  0  0
  -10.0746    0.7444    2.4496 F   0  0  0  0  0  0  0  0  0  0  0  0
   -9.3505   -0.8516    3.7525 F   0  0  0  0  0  0  0  0  0  0  0  0
    6.6061    1.9866    4.2510 F   0  0  0  0  0  0  0  0  0  0  0  0
    5.2253    0.3071    4.2062 F   0  0  0  0  0  0  0  0  0  0  0  0
    7.2894    0.0040    4.8234 F   0  0  0  0  0  0  0  0  0  0  0  0
    1.1747    0.5098   -2.8268 H   0  0  0  0  0  0  0  0  0  0  0  0
    2.5770    1.1218   -1.9920 H   0  0  0  0  0  0  0  0  0  0  0  0
    2.9982   -1.0878   -3.0849 H   0  0  0  0  0  0  0  0  0  0  0  0
    1.7519   -1.8136   -2.0820 H   0  0  0  0  0  0  0  0  0  0  0  0
    3.5132   -2.3285   -0.7394 H   0  0  0  0  0  0  0  0  0  0  0  0
    3.6109    0.5106    0.3162 H   0  0  0  0  0  0  0  0  0  0  0  0
    3.5297   -1.0110    1.1816 H   0  0  0  0  0  0  0  0  0  0  0  0
    1.3934    0.1634    1.3610 H   0  0  0  0  0  0  0  0  0  0  0  0
    1.1751   -1.3263    0.4337 H   0  0  0  0  0  0  0  0  0  0  0  0
    5.1661    0.0554   -1.2912 H   0  0  0  0  0  0  0  0  0  0  0  0
   -0.7209    0.8862   -1.7051 H   0  0  0  0  0  0  0  0  0  0  0  0
   -0.5476   -0.7944   -1.1960 H   0  0  0  0  0  0  0  0  0  0  0  0
   -0.9502   -0.0954    1.1806 H   0  0  0  0  0  0  0  0  0  0  0  0
   -1.0071    1.5985    0.6783 H   0  0  0  0  0  0  0  0  0  0  0  0
   -2.9782    1.1036   -0.7627 H   0  0  0  0  0  0  0  0  0  0  0  0
   -2.8961   -0.5990   -0.3038 H   0  0  0  0  0  0  0  0  0  0  0  0
   -3.3135    1.7274    1.6488 H   0  0  0  0  0  0  0  0  0  0  0  0
   -3.2415    0.0351    2.0997 H   0  0  0  0  0  0  0  0  0  0  0  0
   -7.2664    0.8197   -2.9154 H   0  0  0  0  0  0  0  0  0  0  0  0
   -7.1339    3.2921   -3.0713 H   0  0  0  0  0  0  0  0  0  0  0  0
   -6.0387    4.6158   -1.2884 H   0  0  0  0  0  0  0  0  0  0  0  0
   -5.0505    3.4886    0.6959 H   0  0  0  0  0  0  0  0  0  0  0  0
   -4.8030   -2.1356    2.1026 H   0  0  0  0  0  0  0  0  0  0  0  0
   -5.6498   -4.1398    0.8996 H   0  0  0  0  0  0  0  0  0  0  0  0
   -6.8117   -3.9052   -1.2735 H   0  0  0  0  0  0  0  0  0  0  0  0
   -7.1533   -1.6702   -2.2942 H   0  0  0  0  0  0  0  0  0  0  0  0
   -7.6510    0.5989    1.5355 H   0  0  0  0  0  0  0  0  0  0  0  0
   -7.4888    0.8669    4.5006 H   0  0  0  0  0  0  0  0  0  0  0  0
   -8.1128    2.2082    3.5356 H   0  0  0  0  0  0  0  0  0  0  0  0
    9.7765    0.5044   -1.5026 H   0  0  0  0  0  0  0  0  0  0  0  0
   10.4424   -0.0194   -3.8120 H   0  0  0  0  0  0  0  0  0  0  0  0
    8.9613   -1.3815   -5.2651 H   0  0  0  0  0  0  0  0  0  0  0  0
    6.7891   -2.1901   -4.4012 H   0  0  0  0  0  0  0  0  0  0  0  0
    7.4960   -2.2847    0.4442 H   0  0  0  0  0  0  0  0  0  0  0  0
    6.9160   -1.7757    2.7756 H   0  0  0  0  0  0  0  0  0  0  0  0
    6.9380    2.4427    1.8623 H   0  0  0  0  0  0  0  0  0  0  0  0
    7.5159    1.9340   -0.4695 H   0  0  0  0  0  0  0  0  0  0  0  0
  1  8  1  0
  8  9  1  0
  9 10  1  0
 10 11  1  0
 11 12  1  0
 12 13  1  0
 12 14  1  0
 14 15  2  0
 15 16  1  0
 16 17  1  0
 17 12  1  0
 16 18  2  0
 18 19  1  0
 19 20  2  0
 20 21  1  0
 21 17  2  0
 14 22  1  0
 22 23  2  0
 23 24  1  0
 24 25  2  0
 25 15  1  0
 13 26  2  0
 13 27  1  0
 27 28  1  0
  7 29  1  0
 29 30  1  0
 29 31  2  0
 30 32  1  0
 32 33  2  0
 33 34  1  0
 34 35  2  0
 35 36  1  0
 36 30  2  0
 32 37  1  0
 37 38  2  0
 38 39  1  0
 39 40  2  0
 40 41  1  0
 41 42  2  0
 42 37  1  0
 40 43  1  0
 28 44  1  0
  1  2  1  0
  2  3  1  0
 44 45  1  0
  3  4  1  0
 44 46  1  0
  4  5  1  0
 44 47  1  0
  5  6  1  0
 43 48  1  0
  6  1  1  0
 43 49  1  0
  4  7  1  0
 43 50  1  0
  2 51  1  0
  2 52  1  0
  3 53  1  0
  3 54  1  0
  4 55  1  0
  5 56  1  0
  5 57  1  0
  6 58  1  0
  6 59  1  0
  7 60  1  0
  8 61  1  0
  8 62  1  0
  9 63  1  0
  9 64  1  0
 10 65  1  0
 10 66  1  0
 11 67  1  0
 11 68  1  0
 18 69  1  0
 19 70  1  0
 20 71  1  0
 21 72  1  0
 22 73  1  0
 23 74  1  0
 24 75  1  0
 25 76  1  0
 27 77  1  0
 28 78  1  0
 28 79  1  0
 33 80  1  0
 34 81  1  0
 35 82  1  0
 36 83  1  0
 38 84  1  0
 39 85  1  0
 41 86  1  0
 42 87  1  0
M  END
$$$$
