
     RDKit          3D

 87 92  0  0  0  0  0  0  0  0999 V2000
    0.7356   -0.7490   -0.1653 N   0  0  0  0  0  0  0  0  0  0  0  0
    1.8608   -0.8466    0.7827 C   0  0  0  0  0  0  0  0  0  0  0  0
    3.0501   -0.0105    0.3169 C   0  0  0  0  0  0  0  0  0  0  0  0
    2.6518    1.4492    0.0985 C   0  0  0  0  0  0  0  0  0  0  0  0
    1.4238    1.5368   -0.8029 C   0  0  0  0  0  0  0  0  0  0  0  0
    0.2941    0.6520   -0.2785 C   0  0  0  0  0  0  0  0  0  0  0  0
    3.7588    2.1979   -0.4817 N   0  0  0  0  0  0  0  0  0  0  0  0
   -0.3651   -1.6262    0.2827 C   0  0  0  0  0  0  0  0  0  0  0  0
   -1.4330   -1.8317   -0.8032 C   0  0  0  0  0  0  0  0  0  0  0  0
   -2.4878   -2.8694   -0.4129 C   0  0  0  0  0  0  0  0  0  0  0  0
   -3.4699   -2.4795    0.7032 C   0  0  0  0  0  0  0  0  0  0  0  0
   -4.5115   -1.3504    0.4436 C   0  0  0  0  0  0  0  0  0  0  0  0
   -3.9296    0.0813    0.5879 C   0  0  0  0  0  0  0  0  0  0  0  0
   -5.6259   -1.5209    1.5087 C   0  0  0  0  0  0  0  0  0  0  0  0
   -6.8559   -1.8286    0.8923 C   0  0  0  0  0  0  0  0  0  0  0  0
   -6.6776   -1.8362   -0.5422 C   0  0  0  0  0  0  0  0  0  0  0  0
   -5.3298   -1.5388   -0.8481 C   0  0  0  0  0  0  0  0  0  0  0  0
   -7.6063   -2.0364   -1.5521 C   0  0  0  0  0  0  0  0  0  0  0  0
   -7.1859   -1.9206   -2.8794 C   0  0  0  0  0  0  0  0  0  0  0  0
   -5.8547   -1.5983   -3.1841 C   0  0  0  0  0  0  0  0  0  0  0  0
   -4.9185   -1.3968   -2.1681 C   0  0  0  0  0  0  0  0  0  0  0  0
   -5.5166   -1.4148    2.8900 C   0  0  0  0  0  0  0  0  0  0  0  0
   -6.6612   -1.6297    3.6595 C   0  0  0  0  0  0  0  0  0  0  0  0
   -7.8865   -1.9429    3.0501 C   0  0  0  0  0  0  0  0  0  0  0  0
   -7.9905   -2.0425    1.6589 C   0  0  0  0  0  0  0  0  0  0  0  0
   -2.8254    0.3151    1.0758 O   0  0  0  0  0  0  0  0  0  0  0  0
   -4.7588    1.1162    0.1888 N   0  0  0  0  0  0  0  0  0  0  0  0
   -4.4055    2.5047    0.4817 C   0  0  0  0  0  0  0  0  0  0  0  0
    4.6881    2.8504    0.2957 C   0  0  0  0  0  0  0  0  0  0  0  0
    5.8525    3.3633   -0.4555 C   0  0  0  0  0  0  0  0  0  0  0  0
    4.6074    3.0346    1.5015 O   0  0  0  0  0  0  0  0  0  0  0  0
    6.8713    2.5000   -0.9088 C   0  0  0  0  0  0  0  0  0  0  0  0
    7.9173    3.0700   -1.6559 C   0  0  0  0  0  0  0  0  0  0  0  0
    7.9472    4.4416   -1.9312 C   0  0  0  0  0  0  0  0  0  0  0  0
    6.9342    5.2756   -1.4606 C   0  0  0  0  0  0  0  0  0  0  0  0
    5.8855    4.7393   -0.7176 C   0  0  0  0  0  0  0  0  0  0  0  0
    6.8870    1.0583   -0.6096 C   0  0  0  0  0  0  0  0  0  0  0  0
    6.9699    0.5996    0.7144 C   0  0  0  0  0  0  0  0  0  0  0  0
    6.9706   -0.7679    1.0068 C   0  0  0  0  0  0  0  0  0  0  0  0
    6.8929   -1.7146   -0.0222 C   0  0  0  0  0  0  0  0  0  0  0  0
    6.8166   -1.2637   -1.3484 C   0  0  0  0  0  0  0  0  0  0  0  0
    6.8168    0.1053   -1.6368 C   0  0  0  0  0  0  0  0  0  0  0  0
    6.8697   -3.1936    0.2754 C   0  0  0  0  0  0  0  0  0  0  0  0
   -4.7346    2.9736    1.9026 C   0  0  0  0  0  0  0  0  0  0  0  0
   -4.3992    4.2751    2.0610 F   0  0  0  0  0  0  0  0  0  0  0  0
   -4.0930    2.2653    2.8531 F   0  0  0  0  0  0  0  0  0  0  0  0
   -6.0650    2.8716    2.1380 F   0  0  0  0  0  0  0  0  0  0  0  0
    5.6755   -3.7678   -0.0408 F   0  0  0  0  0  0  0  0  0  0  0  0
    7.8129   -3.8823   -0.4276 F   0  0  0  0  0  0  0  0  0  0  0  0
    7.0921   -3.4921    1.5864 F   0  0  0  0  0  0  0  0  0  0  0  0
    1.5559   -0.5289    1.7884 H   0  0  0  0  0  0  0  0  0  0  0  0
    2.1943   -1.8890    0.8584 H   0  0  0  0  0  0  0  0  0  0  0  0
    3.4524   -0.4320   -0.6144 H   0  0  0  0  0  0  0  0  0  0  0  0
    3.8543   -0.0743    1.0589 H   0  0  0  0  0  0  0  0  0  0  0  0
    2.4076    1.8949    1.0711 H   0  0  0  0  0  0  0  0  0  0  0  0
    1.6820    1.2357   -1.8265 H   0  0  0  0  0  0  0  0  0  0  0  0
    1.0804    2.5763   -0.8644 H   0  0  0  0  0  0  0  0  0  0  0  0
   -0.5367    0.7409   -0.9849 H   0  0  0  0  0  0  0  0  0  0  0  0
   -0.0573    1.0332    0.6889 H   0  0  0  0  0  0  0  0  0  0  0  0
    4.0035    2.0014   -1.4444 H   0  0  0  0  0  0  0  0  0  0  0  0
   -0.8082   -1.2488    1.2106 H   0  0  0  0  0  0  0  0  0  0  0  0
    0.0488   -2.6160    0.5158 H   0  0  0  0  0  0  0  0  0  0  0  0
   -1.9210   -0.8930   -1.0743 H   0  0  0  0  0  0  0  0  0  0  0  0
   -0.9339   -2.1901   -1.7135 H   0  0  0  0  0  0  0  0  0  0  0  0
   -3.0455   -3.1667   -1.3072 H   0  0  0  0  0  0  0  0  0  0  0  0
   -1.9654   -3.7814   -0.0923 H   0  0  0  0  0  0  0  0  0  0  0  0
   -2.8970   -2.2513    1.6114 H   0  0  0  0  0  0  0  0  0  0  0  0
   -4.0176   -3.4049    0.9396 H   0  0  0  0  0  0  0  0  0  0  0  0
   -8.6421   -2.2692   -1.3275 H   0  0  0  0  0  0  0  0  0  0  0  0
   -7.8994   -2.0727   -3.6865 H   0  0  0  0  0  0  0  0  0  0  0  0
   -5.5504   -1.5015   -4.2242 H   0  0  0  0  0  0  0  0  0  0  0  0
   -3.8973   -1.1304   -2.4209 H   0  0  0  0  0  0  0  0  0  0  0  0
   -4.5708   -1.1723    3.3665 H   0  0  0  0  0  0  0  0  0  0  0  0
   -6.6035   -1.5563    4.7436 H   0  0  0  0  0  0  0  0  0  0  0  0
   -8.7664   -2.1085    3.6700 H   0  0  0  0  0  0  0  0  0  0  0  0
   -8.9443   -2.2822    1.2008 H   0  0  0  0  0  0  0  0  0  0  0  0
   -5.7369    0.8974    0.0236 H   0  0  0  0  0  0  0  0  0  0  0  0
   -3.3352    2.6430    0.2925 H   0  0  0  0  0  0  0  0  0  0  0  0
   -4.9534    3.1220   -0.2379 H   0  0  0  0  0  0  0  0  0  0  0  0
    8.7327    2.4440   -2.0149 H   0  0  0  0  0  0  0  0  0  0  0  0
    8.7701    4.8590   -2.5065 H   0  0  0  0  0  0  0  0  0  0  0  0
    6.9642    6.3417   -1.6709 H   0  0  0  0  0  0  0  0  0  0  0  0
    5.0926    5.3856   -0.3462 H   0  0  0  0  0  0  0  0  0  0  0  0
    7.0219    1.3117    1.5380 H   0  0  0  0  0  0  0  0  0  0  0  0
    7.0241   -1.0852    2.0473 H   0  0  0  0  0  0  0  0  0  0  0  0
    6.7524   -1.9812   -2.1656 H   0  0  0  0  0  0  0  0  0  0  0  0
    6.7500    0.4239   -2.6757 H   0  0  0  0  0  0  0  0  0  0  0  0
  1  8  1  0
  8  9  1  0
  9 10  1  0
 10 11  1  0
 11 12  1  0
 12 13  1  0
 12 14  1  0
 14 15  2  0
 15 16  1  0
 16 17  1  0
 17 12  1  0
 16 18  2  0
 18 19  1  0
 19 20  2  0
 20 21  1  0
 21 17  2  0
 14 22  1  0
 22 23  2  0
 23 24  1  0
 24 25  2  0
 25 15  1  0
 13 26  2  0
 13 27  1  0
 27 28  1  0
  7 29  1  0
 29 30  1  0
 29 31  2  0
 30 32  1  0
 32 33  2  0
 33 34  1  0
 34 35  2  0
 35 36  1  0
 36 30  2  0
 32 37  1  0
 37 38  2  0
 38 39  1  0
 39 40  2  0
 40 41  1  0
 41 42  2  0
 42 37  1  0
 40 43  1  0
 28 44  1  0
  1  2  1  0
  2  3  1  0
 44 45  1  0
  3  4  1  0
 44 46  1  0
  4  5  1  0
 44 47  1  0
  5  6  1  0
 43 48  1  0
  6  1  1  0
 43 49  1  0
  4  7  1  0
 43 50  1  0
  2 51  1  0
  2 52  1  0
  3 53  1  0
  3 54  1  0
  4 55  1  0
  5 56  1  0
  5 57  1  0
  6 58  1  0
  6 59  1  0
  7 60  1  0
  8 61  1  0
  8 62  1  0
  9 63  1  0
  9 64  1  0
 10 65  1  0
 10 66  1  0
 11 67  1  0
 11 68  1  0
 18 69  1  0
 19 70  1  0
 20 71  1  0
 21 72  1  0
 22 73  1  0
 23 74  1  0
 24 75  1  0
 25 76  1  0
 27 77  1  0
 28 78  1  0
 28 79  1  0
 33 80  1  0
 34 81  1  0
 35 82  1  0
 36 83  1  0
 38 84  1  0
 39 85  1  0
 41 86  1  0
 42 87  1  0
M  END
$$$$
