
     RDKit          3D

 87 92  0  0  0  0  0  0  0  0999 V2000
    0.5387    0.0904   -1.2045 N   0  0  0  0  0  0  0  0  0  0  0  0
    1.3027   -0.1401    0.0320 C   0  0  0  0  0  0  0  0  0  0  0  0
    2.8049   -0.1546   -0.2461 C   0  0  0  0  0  0  0  0  0  0  0  0
    3.2543    1.1394   -0.9210 C   0  0  0  0  0  0  0  0  0  0  0  0
    2.4002    1.4176   -2.1570 C   0  0  0  0  0  0  0  0  0  0  0  0
    0.9137    1.3801   -1.8106 C   0  0  0  0  0  0  0  0  0  0  0  0
    4.6656    1.0663   -1.2674 N   0  0  0  0  0  0  0  0  0  0  0  0
   -0.9164    0.0396   -0.9784 C   0  0  0  0  0  0  0  0  0  0  0  0
   -1.4140   -1.3791   -0.6612 C   0  0  0  0  0  0  0  0  0  0  0  0
   -2.9435   -1.5066   -0.7044 C   0  0  0  0  0  0  0  0  0  0  0  0
   -3.6403   -0.8179    0.4776 C   0  0  0  0  0  0  0  0  0  0  0  0
   -5.1919   -0.7342    0.3912 C   0  0  0  0  0  0  0  0  0  0  0  0
   -5.7137   -0.0010   -0.8789 C   0  0  0  0  0  0  0  0  0  0  0  0
   -5.8435   -2.1247    0.5486 C   0  0  0  0  0  0  0  0  0  0  0  0
   -6.5655   -2.1979    1.7586 C   0  0  0  0  0  0  0  0  0  0  0  0
   -6.4880   -0.9249    2.4376 C   0  0  0  0  0  0  0  0  0  0  0  0
   -5.7123   -0.0297    1.6684 C   0  0  0  0  0  0  0  0  0  0  0  0
   -7.0488   -0.5253    3.6412 C   0  0  0  0  0  0  0  0  0  0  0  0
   -6.8334    0.7832    4.0781 C   0  0  0  0  0  0  0  0  0  0  0  0
   -6.0629    1.6737    3.3165 C   0  0  0  0  0  0  0  0  0  0  0  0
   -5.4923    1.2717    2.1061 C   0  0  0  0  0  0  0  0  0  0  0  0
   -5.8262   -3.2029   -0.3286 C   0  0  0  0  0  0  0  0  0  0  0  0
   -6.4974   -4.3727    0.0331 C   0  0  0  0  0  0  0  0  0  0  0  0
   -7.1879   -4.4539    1.2506 C   0  0  0  0  0  0  0  0  0  0  0  0
   -7.2312   -3.3606    2.1188 C   0  0  0  0  0  0  0  0  0  0  0  0
   -6.6909   -0.3677   -1.5294 O   0  0  0  0  0  0  0  0  0  0  0  0
   -5.0076    1.1279   -1.2640 N   0  0  0  0  0  0  0  0  0  0  0  0
   -5.5125    1.9788   -2.3450 C   0  0  0  0  0  0  0  0  0  0  0  0
    5.4542    2.1880   -1.3898 C   0  0  0  0  0  0  0  0  0  0  0  0
    6.8550    1.9479   -1.8299 C   0  0  0  0  0  0  0  0  0  0  0  0
    5.0573    3.3318   -1.1986 O   0  0  0  0  0  0  0  0  0  0  0  0
    7.6937    0.9768   -1.2388 C   0  0  0  0  0  0  0  0  0  0  0  0
    8.9883    0.8190   -1.7724 C   0  0  0  0  0  0  0  0  0  0  0  0
    9.4387    1.6062   -2.8358 C   0  0  0  0  0  0  0  0  0  0  0  0
    8.6083    2.5770   -3.3867 C   0  0  0  0  0  0  0  0  0  0  0  0
    7.3207    2.7512   -2.8834 C   0  0  0  0  0  0  0  0  0  0  0  0
    7.2994    0.1656   -0.0738 C   0  0  0  0  0  0  0  0  0  0  0  0
    7.2202   -1.2330   -0.1613 C   0  0  0  0  0  0  0  0  0  0  0  0
    6.8182   -2.0001    0.9370 C   0  0  0  0  0  0  0  0  0  0  0  0
    6.4968   -1.3868    2.1564 C   0  0  0  0  0  0  0  0  0  0  0  0
    6.5815    0.0085    2.2513 C   0  0  0  0  0  0  0  0  0  0  0  0
    6.9836    0.7728    1.1518 C   0  0  0  0  0  0  0  0  0  0  0  0
    6.0244   -2.2089    3.3300 C   0  0  0  0  0  0  0  0  0  0  0  0
   -6.5202    3.0439   -1.9053 C   0  0  0  0  0  0  0  0  0  0  0  0
   -5.9495    3.8667   -0.9911 F   0  0  0  0  0  0  0  0  0  0  0  0
   -7.6310    2.5254   -1.3512 F   0  0  0  0  0  0  0  0  0  0  0  0
   -6.8956    3.8101   -2.9544 F   0  0  0  0  0  0  0  0  0  0  0  0
    4.6734   -2.3765    3.3287 F   0  0  0  0  0  0  0  0  0  0  0  0
    6.3331   -1.6517    4.5345 F   0  0  0  0  0  0  0  0  0  0  0  0
    6.5568   -3.4627    3.3528 F   0  0  0  0  0  0  0  0  0  0  0  0
    1.0708    0.6271    0.7827 H   0  0  0  0  0  0  0  0  0  0  0  0
    1.0469   -1.1106    0.4700 H   0  0  0  0  0  0  0  0  0  0  0  0
    3.3525   -0.2950    0.6942 H   0  0  0  0  0  0  0  0  0  0  0  0
    3.0526   -1.0178   -0.8795 H   0  0  0  0  0  0  0  0  0  0  0  0
    3.1275    1.9697   -0.2133 H   0  0  0  0  0  0  0  0  0  0  0  0
    2.6159    0.6765   -2.9387 H   0  0  0  0  0  0  0  0  0  0  0  0
    2.6531    2.3967   -2.5813 H   0  0  0  0  0  0  0  0  0  0  0  0
    0.6656    2.2127   -1.1386 H   0  0  0  0  0  0  0  0  0  0  0  0
    0.3504    1.5333   -2.7396 H   0  0  0  0  0  0  0  0  0  0  0  0
    5.0303    0.1810   -1.5969 H   0  0  0  0  0  0  0  0  0  0  0  0
   -1.2051    0.7394   -0.1849 H   0  0  0  0  0  0  0  0  0  0  0  0
   -1.4270    0.3665   -1.8933 H   0  0  0  0  0  0  0  0  0  0  0  0
   -0.9971   -2.0756   -1.4009 H   0  0  0  0  0  0  0  0  0  0  0  0
   -1.0586   -1.7065    0.3225 H   0  0  0  0  0  0  0  0  0  0  0  0
   -3.3130   -1.1199   -1.6596 H   0  0  0  0  0  0  0  0  0  0  0  0
   -3.1738   -2.5762   -0.6809 H   0  0  0  0  0  0  0  0  0  0  0  0
   -3.2320    0.1928    0.5881 H   0  0  0  0  0  0  0  0  0  0  0  0
   -3.3494   -1.3471    1.3967 H   0  0  0  0  0  0  0  0  0  0  0  0
   -7.6492   -1.2063    4.2351 H   0  0  0  0  0  0  0  0  0  0  0  0
   -7.2718    1.1168    5.0160 H   0  0  0  0  0  0  0  0  0  0  0  0
   -5.9123    2.6901    3.6738 H   0  0  0  0  0  0  0  0  0  0  0  0
   -4.8975    1.9791    1.5406 H   0  0  0  0  0  0  0  0  0  0  0  0
   -5.3282   -3.1416   -1.2907 H   0  0  0  0  0  0  0  0  0  0  0  0
   -6.4965   -5.2246   -0.6427 H   0  0  0  0  0  0  0  0  0  0  0  0
   -7.7101   -5.3712    1.5120 H   0  0  0  0  0  0  0  0  0  0  0  0
   -7.7879   -3.4261    3.0473 H   0  0  0  0  0  0  0  0  0  0  0  0
   -4.3635    1.5478   -0.6080 H   0  0  0  0  0  0  0  0  0  0  0  0
   -4.6373    2.4715   -2.7804 H   0  0  0  0  0  0  0  0  0  0  0  0
   -5.9585    1.3494   -3.1225 H   0  0  0  0  0  0  0  0  0  0  0  0
    9.6712    0.0899   -1.3384 H   0  0  0  0  0  0  0  0  0  0  0  0
   10.4463    1.4705   -3.2222 H   0  0  0  0  0  0  0  0  0  0  0  0
    8.9632    3.2005   -4.2032 H   0  0  0  0  0  0  0  0  0  0  0  0
    6.6723    3.5118   -3.3140 H   0  0  0  0  0  0  0  0  0  0  0  0
    7.4590   -1.7373   -1.0964 H   0  0  0  0  0  0  0  0  0  0  0  0
    6.7544   -3.0829    0.8355 H   0  0  0  0  0  0  0  0  0  0  0  0
    6.3315    0.5135    3.1835 H   0  0  0  0  0  0  0  0  0  0  0  0
    7.0382    1.8561    1.2552 H   0  0  0  0  0  0  0  0  0  0  0  0
  1  8  1  0
  8  9  1  0
  9 10  1  0
 10 11  1  0
 11 12  1  0
 12 13  1  0
 12 14  1  0
 14 15  2  0
 15 16  1  0
 16 17  1  0
 17 12  1  0
 16 18  2  0
 18 19  1  0
 19 20  2  0
 20 21  1  0
 21 17  2  0
 14 22  1  0
 22 23  2  0
 23 24  1  0
 24 25  2  0
 25 15  1  0
 13 26  2  0
 13 27  1  0
 27 28  1  0
  7 29  1  0
 29 30  1  0
 29 31  2  0
 30 32  1  0
 32 33  2  0
 33 34  1  0
 34 35  2  0
 35 36  1  0
 36 30  2  0
 32 37  1  0
 37 38  2  0
 38 39  1  0
 39 40  2  0
 40 41  1  0
 41 42  2  0
 42 37  1  0
 40 43  1  0
 28 44  1  0
  1  2  1  0
  2  3  1  0
 44 45  1  0
  3  4  1  0
 44 46  1  0
  4  5  1  0
 44 47  1  0
  5  6  1  0
 43 48  1  0
  6  1  1  0
 43 49  1  0
  4  7  1  0
 43 50  1  0
  2 51  1  0
  2 52  1  0
  3 53  1  0
  3 54  1  0
  4 55  1  0
  5 56  1  0
  5 57  1  0
  6 58  1  0
  6 59  1  0
  7 60  1  0
  8 61  1  0
  8 62  1  0
  9 63  1  0
  9 64  1  0
 10 65  1  0
 10 66  1  0
 11 67  1  0
 11 68  1  0
 18 69  1  0
 19 70  1  0
 20 71  1  0
 21 72  1  0
 22 73  1  0
 23 74  1  0
 24 75  1  0
 25 76  1  0
 27 77  1  0
 28 78  1  0
 28 79  1  0
 33 80  1  0
 34 81  1  0
 35 82  1  0
 36 83  1  0
 38 84  1  0
 39 85  1  0
 41 86  1  0
 42 87  1  0
M  END
$$$$
