
     RDKit          3D

 87 92  0  0  0  0  0  0  0  0999 V2000
    0.9000   -0.4520   -0.2518 N   0  0  0  0  0  0  0  0  0  0  0  0
    1.1072   -1.0130   -1.6006 C   0  0  0  0  0  0  0  0  0  0  0  0
    2.5781   -1.0068   -2.0126 C   0  0  0  0  0  0  0  0  0  0  0  0
    3.1359    0.4122   -1.9494 C   0  0  0  0  0  0  0  0  0  0  0  0
    2.9181    0.9742   -0.5473 C   0  0  0  0  0  0  0  0  0  0  0  0
    1.4399    0.9208   -0.1715 C   0  0  0  0  0  0  0  0  0  0  0  0
    4.5427    0.4476   -2.3214 N   0  0  0  0  0  0  0  0  0  0  0  0
   -0.5505   -0.4627    0.0448 C   0  0  0  0  0  0  0  0  0  0  0  0
   -0.8890   -0.2090    1.5234 C   0  0  0  0  0  0  0  0  0  0  0  0
   -2.3832    0.0844    1.7291 C   0  0  0  0  0  0  0  0  0  0  0  0
   -3.2995   -1.1376    1.5678 C   0  0  0  0  0  0  0  0  0  0  0  0
   -4.7424   -0.8032    1.0982 C   0  0  0  0  0  0  0  0  0  0  0  0
   -4.7477   -0.2154   -0.3402 C   0  0  0  0  0  0  0  0  0  0  0  0
   -5.5268    0.0635    2.1025 C   0  0  0  0  0  0  0  0  0  0  0  0
   -6.6324   -0.6564    2.6100 C   0  0  0  0  0  0  0  0  0  0  0  0
   -6.6663   -1.9716    2.0081 C   0  0  0  0  0  0  0  0  0  0  0  0
   -5.5842   -2.0969    1.1108 C   0  0  0  0  0  0  0  0  0  0  0  0
   -7.5660   -3.0123    2.1742 C   0  0  0  0  0  0  0  0  0  0  0  0
   -7.3789   -4.1826    1.4329 C   0  0  0  0  0  0  0  0  0  0  0  0
   -6.3017   -4.3028    0.5400 C   0  0  0  0  0  0  0  0  0  0  0  0
   -5.3933   -3.2573    0.3722 C   0  0  0  0  0  0  0  0  0  0  0  0
   -5.3068    1.3843    2.4780 C   0  0  0  0  0  0  0  0  0  0  0  0
   -6.1852    1.9740    3.3895 C   0  0  0  0  0  0  0  0  0  0  0  0
   -7.2700    1.2530    3.9085 C   0  0  0  0  0  0  0  0  0  0  0  0
   -7.5028   -0.0687    3.5164 C   0  0  0  0  0  0  0  0  0  0  0  0
   -3.7687   -0.2837   -1.0852 O   0  0  0  0  0  0  0  0  0  0  0  0
   -5.9343    0.3443   -0.7660 N   0  0  0  0  0  0  0  0  0  0  0  0
   -6.0948    0.9432   -2.0924 C   0  0  0  0  0  0  0  0  0  0  0  0
    5.1415    1.6135   -2.7540 C   0  0  0  0  0  0  0  0  0  0  0  0
    6.6142    1.5706   -2.9646 C   0  0  0  0  0  0  0  0  0  0  0  0
    4.5270    2.6444   -3.0046 O   0  0  0  0  0  0  0  0  0  0  0  0
    7.5297    1.0556   -2.0195 C   0  0  0  0  0  0  0  0  0  0  0  0
    8.8982    1.0679   -2.3582 C   0  0  0  0  0  0  0  0  0  0  0  0
    9.3455    1.5890   -3.5746 C   0  0  0  0  0  0  0  0  0  0  0  0
    8.4337    2.1179   -4.4814 C   0  0  0  0  0  0  0  0  0  0  0  0
    7.0725    2.1105   -4.1788 C   0  0  0  0  0  0  0  0  0  0  0  0
    7.1369    0.5586   -0.6908 C   0  0  0  0  0  0  0  0  0  0  0  0
    7.3356   -0.7864   -0.3367 C   0  0  0  0  0  0  0  0  0  0  0  0
    6.9246   -1.2675    0.9096 C   0  0  0  0  0  0  0  0  0  0  0  0
    6.3028   -0.4164    1.8345 C   0  0  0  0  0  0  0  0  0  0  0  0
    6.1357    0.9339    1.5000 C   0  0  0  0  0  0  0  0  0  0  0  0
    6.5458    1.4132    0.2518 C   0  0  0  0  0  0  0  0  0  0  0  0
    5.8485   -0.9430    3.1736 C   0  0  0  0  0  0  0  0  0  0  0  0
   -6.5450    2.4020   -2.0692 C   0  0  0  0  0  0  0  0  0  0  0  0
   -5.6636    3.1908   -1.4168 F   0  0  0  0  0  0  0  0  0  0  0  0
   -7.7443    2.5207   -1.4516 F   0  0  0  0  0  0  0  0  0  0  0  0
   -6.6823    2.8861   -3.3245 F   0  0  0  0  0  0  0  0  0  0  0  0
    5.3783   -2.2193    3.1071 F   0  0  0  0  0  0  0  0  0  0  0  0
    6.8563   -0.9634    4.0905 F   0  0  0  0  0  0  0  0  0  0  0  0
    4.8478   -0.2067    3.7314 F   0  0  0  0  0  0  0  0  0  0  0  0
    0.5201   -0.4595   -2.3447 H   0  0  0  0  0  0  0  0  0  0  0  0
    0.7577   -2.0523   -1.6212 H   0  0  0  0  0  0  0  0  0  0  0  0
    3.1505   -1.6747   -1.3563 H   0  0  0  0  0  0  0  0  0  0  0  0
    2.6775   -1.4058   -3.0278 H   0  0  0  0  0  0  0  0  0  0  0  0
    2.5901    1.0391   -2.6679 H   0  0  0  0  0  0  0  0  0  0  0  0
    3.5037    0.3995    0.1808 H   0  0  0  0  0  0  0  0  0  0  0  0
    3.2747    2.0103   -0.4874 H   0  0  0  0  0  0  0  0  0  0  0  0
    0.8749    1.5993   -0.8234 H   0  0  0  0  0  0  0  0  0  0  0  0
    1.3574    1.3078    0.8489 H   0  0  0  0  0  0  0  0  0  0  0  0
    5.1266   -0.3229   -2.0292 H   0  0  0  0  0  0  0  0  0  0  0  0
   -0.9523   -1.4490   -0.2136 H   0  0  0  0  0  0  0  0  0  0  0  0
   -1.0655    0.2648   -0.5944 H   0  0  0  0  0  0  0  0  0  0  0  0
   -0.3480    0.6669    1.8963 H   0  0  0  0  0  0  0  0  0  0  0  0
   -0.5779   -1.0638    2.1368 H   0  0  0  0  0  0  0  0  0  0  0  0
   -2.6680    0.8848    1.0335 H   0  0  0  0  0  0  0  0  0  0  0  0
   -2.5206    0.4848    2.7459 H   0  0  0  0  0  0  0  0  0  0  0  0
   -2.8539   -1.8465    0.8603 H   0  0  0  0  0  0  0  0  0  0  0  0
   -3.3265   -1.6698    2.5297 H   0  0  0  0  0  0  0  0  0  0  0  0
   -8.4063   -2.9292    2.8557 H   0  0  0  0  0  0  0  0  0  0  0  0
   -8.0762   -5.0090    1.5454 H   0  0  0  0  0  0  0  0  0  0  0  0
   -6.1755   -5.2219   -0.0260 H   0  0  0  0  0  0  0  0  0  0  0  0
   -4.5611   -3.3546   -0.3202 H   0  0  0  0  0  0  0  0  0  0  0  0
   -4.4846    1.9664    2.0733 H   0  0  0  0  0  0  0  0  0  0  0  0
   -6.0303    3.0063    3.6957 H   0  0  0  0  0  0  0  0  0  0  0  0
   -7.9434    1.7325    4.6157 H   0  0  0  0  0  0  0  0  0  0  0  0
   -8.3541   -0.6117    3.9156 H   0  0  0  0  0  0  0  0  0  0  0  0
   -6.7424    0.3091   -0.1513 H   0  0  0  0  0  0  0  0  0  0  0  0
   -5.1600    0.8653   -2.6549 H   0  0  0  0  0  0  0  0  0  0  0  0
   -6.8436    0.3411   -2.6153 H   0  0  0  0  0  0  0  0  0  0  0  0
    9.6374    0.6914   -1.6510 H   0  0  0  0  0  0  0  0  0  0  0  0
   10.4078    1.5936   -3.8054 H   0  0  0  0  0  0  0  0  0  0  0  0
    8.7806    2.5408   -5.4202 H   0  0  0  0  0  0  0  0  0  0  0  0
    6.3606    2.5318   -4.8889 H   0  0  0  0  0  0  0  0  0  0  0  0
    7.7978   -1.4745   -1.0406 H   0  0  0  0  0  0  0  0  0  0  0  0
    7.0831   -2.3176    1.1568 H   0  0  0  0  0  0  0  0  0  0  0  0
    5.6658    1.6193    2.2021 H   0  0  0  0  0  0  0  0  0  0  0  0
    6.3870    2.4666    0.0151 H   0  0  0  0  0  0  0  0  0  0  0  0
  1  8  1  0
  8  9  1  0
  9 10  1  0
 10 11  1  0
 11 12  1  0
 12 13  1  0
 12 14  1  0
 14 15  2  0
 15 16  1  0
 16 17  1  0
 17 12  1  0
 16 18  2  0
 18 19  1  0
 19 20  2  0
 20 21  1  0
 21 17  2  0
 14 22  1  0
 22 23  2  0
 23 24  1  0
 24 25  2  0
 25 15  1  0
 13 26  2  0
 13 27  1  0
 27 28  1  0
  7 29  1  0
 29 30  1  0
 29 31  2  0
 30 32  1  0
 32 33  2  0
 33 34  1  0
 34 35  2  0
 35 36  1  0
 36 30  2  0
 32 37  1  0
 37 38  2  0
 38 39  1  0
 39 40  2  0
 40 41  1  0
 41 42  2  0
 42 37  1  0
 40 43  1  0
 28 44  1  0
  1  2  1  0
  2  3  1  0
 44 45  1  0
  3  4  1  0
 44 46  1  0
  4  5  1  0
 44 47  1  0
  5  6  1  0
 43 48  1  0
  6  1  1  0
 43 49  1  0
  4  7  1  0
 43 50  1  0
  2 51  1  0
  2 52  1  0
  3 53  1  0
  3 54  1  0
  4 55  1  0
  5 56  1  0
  5 57  1  0
  6 58  1  0
  6 59  1  0
  7 60  1  0
  8 61  1  0
  8 62  1  0
  9 63  1  0
  9 64  1  0
 10 65  1  0
 10 66  1  0
 11 67  1  0
 11 68  1  0
 18 69  1  0
 19 70  1  0
 20 71  1  0
 21 72  1  0
 22 73  1  0
 23 74  1  0
 24 75  1  0
 25 76  1  0
 27 77  1  0
 28 78  1  0
 28 79  1  0
 33 80  1  0
 34 81  1  0
 35 82  1  0
 36 83  1  0
 38 84  1  0
 39 85  1  0
 41 86  1  0
 42 87  1  0
M  END
$$$$
