
     RDKit          3D

 87 92  0  0  0  0  0  0  0  0999 V2000
    0.1730    0.5867   -0.1367 N   0  0  0  0  0  0  0  0  0  0  0  0
    0.5733   -0.6349   -0.8565 C   0  0  0  0  0  0  0  0  0  0  0  0
    1.4281   -1.5612    0.0056 C   0  0  0  0  0  0  0  0  0  0  0  0
    2.7438   -0.8800    0.4064 C   0  0  0  0  0  0  0  0  0  0  0  0
    2.6079    0.6453    0.4532 C   0  0  0  0  0  0  0  0  0  0  0  0
    1.1880    1.0595    0.8208 C   0  0  0  0  0  0  0  0  0  0  0  0
    3.8305   -1.2457   -0.4928 N   0  0  0  0  0  0  0  0  0  0  0  0
   -0.2514    1.6345   -1.0809 C   0  0  0  0  0  0  0  0  0  0  0  0
   -1.1442    2.7021   -0.4299 C   0  0  0  0  0  0  0  0  0  0  0  0
   -2.6514    2.4156   -0.4842 C   0  0  0  0  0  0  0  0  0  0  0  0
   -3.1011    1.1114    0.1883 C   0  0  0  0  0  0  0  0  0  0  0  0
   -4.6277    0.8118    0.1102 C   0  0  0  0  0  0  0  0  0  0  0  0
   -5.1104    0.5987   -1.3505 C   0  0  0  0  0  0  0  0  0  0  0  0
   -4.9054   -0.4731    0.9204 C   0  0  0  0  0  0  0  0  0  0  0  0
   -5.7213   -0.1877    2.0337 C   0  0  0  0  0  0  0  0  0  0  0  0
   -6.0616    1.2169    2.0260 C   0  0  0  0  0  0  0  0  0  0  0  0
   -5.4767    1.8328    0.8973 C   0  0  0  0  0  0  0  0  0  0  0  0
   -6.8554    1.9464    2.8976 C   0  0  0  0  0  0  0  0  0  0  0  0
   -7.0819    3.2981    2.6263 C   0  0  0  0  0  0  0  0  0  0  0  0
   -6.5367    3.9002    1.4832 C   0  0  0  0  0  0  0  0  0  0  0  0
   -5.7350    3.1676    0.6058 C   0  0  0  0  0  0  0  0  0  0  0  0
   -4.4669   -1.7662    0.6602 C   0  0  0  0  0  0  0  0  0  0  0  0
   -4.8509   -2.7788    1.5396 C   0  0  0  0  0  0  0  0  0  0  0  0
   -5.6557   -2.4966    2.6558 C   0  0  0  0  0  0  0  0  0  0  0  0
   -6.0965   -1.1955    2.9060 C   0  0  0  0  0  0  0  0  0  0  0  0
   -4.3401    0.3657   -2.2821 O   0  0  0  0  0  0  0  0  0  0  0  0
   -6.4808    0.6309   -1.5495 N   0  0  0  0  0  0  0  0  0  0  0  0
   -7.0719    0.2881   -2.8420 C   0  0  0  0  0  0  0  0  0  0  0  0
    4.6499   -2.3270   -0.2622 C   0  0  0  0  0  0  0  0  0  0  0  0
    5.6682   -2.5233   -1.3128 C   0  0  0  0  0  0  0  0  0  0  0  0
    4.5891   -3.0836    0.6968 O   0  0  0  0  0  0  0  0  0  0  0  0
    6.9012   -1.8469   -1.2473 C   0  0  0  0  0  0  0  0  0  0  0  0
    7.8086   -2.0435   -2.3017 C   0  0  0  0  0  0  0  0  0  0  0  0
    7.4959   -2.8900   -3.3733 C   0  0  0  0  0  0  0  0  0  0  0  0
    6.2715   -3.5544   -3.4118 C   0  0  0  0  0  0  0  0  0  0  0  0
    5.3525   -3.3752   -2.3807 C   0  0  0  0  0  0  0  0  0  0  0  0
    7.2698   -0.9828   -0.1173 C   0  0  0  0  0  0  0  0  0  0  0  0
    7.9314   -1.5219    0.9961 C   0  0  0  0  0  0  0  0  0  0  0  0
    8.2966   -0.7111    2.0742 C   0  0  0  0  0  0  0  0  0  0  0  0
    8.0142    0.6632    2.0622 C   0  0  0  0  0  0  0  0  0  0  0  0
    7.3407    1.2028    0.9560 C   0  0  0  0  0  0  0  0  0  0  0  0
    6.9777    0.3897   -0.1229 C   0  0  0  0  0  0  0  0  0  0  0  0
    8.4096    1.5285    3.2359 C   0  0  0  0  0  0  0  0  0  0  0  0
   -7.4889   -1.1803   -2.9824 C   0  0  0  0  0  0  0  0  0  0  0  0
   -8.4725   -1.4860   -2.0948 F   0  0  0  0  0  0  0  0  0  0  0  0
   -7.9859   -1.4113   -4.2207 F   0  0  0  0  0  0  0  0  0  0  0  0
   -6.4648   -2.0393   -2.7777 F   0  0  0  0  0  0  0  0  0  0  0  0
    7.6170    1.3349    4.3256 F   0  0  0  0  0  0  0  0  0  0  0  0
    8.3549    2.8645    2.9625 F   0  0  0  0  0  0  0  0  0  0  0  0
    9.6861    1.2892    3.6540 F   0  0  0  0  0  0  0  0  0  0  0  0
   -0.3327   -1.1695   -1.1667 H   0  0  0  0  0  0  0  0  0  0  0  0
    1.1366   -0.3886   -1.7690 H   0  0  0  0  0  0  0  0  0  0  0  0
    1.6111   -2.5058   -0.5185 H   0  0  0  0  0  0  0  0  0  0  0  0
    0.8630   -1.8138    0.9124 H   0  0  0  0  0  0  0  0  0  0  0  0
    3.0144   -1.2418    1.4059 H   0  0  0  0  0  0  0  0  0  0  0  0
    2.8751    1.0913   -0.5143 H   0  0  0  0  0  0  0  0  0  0  0  0
    3.3209    1.0537    1.1797 H   0  0  0  0  0  0  0  0  0  0  0  0
    0.9393    0.6412    1.8040 H   0  0  0  0  0  0  0  0  0  0  0  0
    1.1617    2.1479    0.9499 H   0  0  0  0  0  0  0  0  0  0  0  0
    3.8956   -0.7829   -1.3898 H   0  0  0  0  0  0  0  0  0  0  0  0
    0.6336    2.1138   -1.5190 H   0  0  0  0  0  0  0  0  0  0  0  0
   -0.8049    1.1935   -1.9186 H   0  0  0  0  0  0  0  0  0  0  0  0
   -0.9738    3.6507   -0.9595 H   0  0  0  0  0  0  0  0  0  0  0  0
   -0.8562    2.8930    0.6112 H   0  0  0  0  0  0  0  0  0  0  0  0
   -3.1313    3.2645    0.0045 H   0  0  0  0  0  0  0  0  0  0  0  0
   -2.9721    2.4323   -1.5279 H   0  0  0  0  0  0  0  0  0  0  0  0
   -2.7793    1.1365    1.2365 H   0  0  0  0  0  0  0  0  0  0  0  0
   -2.5636    0.2774   -0.2738 H   0  0  0  0  0  0  0  0  0  0  0  0
   -7.3040    1.4846    3.7699 H   0  0  0  0  0  0  0  0  0  0  0  0
   -7.6981    3.8859    3.3026 H   0  0  0  0  0  0  0  0  0  0  0  0
   -6.7402    4.9492    1.2827 H   0  0  0  0  0  0  0  0  0  0  0  0
   -5.3357    3.6438   -0.2841 H   0  0  0  0  0  0  0  0  0  0  0  0
   -3.8481   -1.9920   -0.2055 H   0  0  0  0  0  0  0  0  0  0  0  0
   -4.5227   -3.7993    1.3633 H   0  0  0  0  0  0  0  0  0  0  0  0
   -5.9378   -3.3007    3.3323 H   0  0  0  0  0  0  0  0  0  0  0  0
   -6.7262   -0.9890    3.7647 H   0  0  0  0  0  0  0  0  0  0  0  0
   -7.0909    0.6893   -0.7379 H   0  0  0  0  0  0  0  0  0  0  0  0
   -6.3648    0.5374   -3.6379 H   0  0  0  0  0  0  0  0  0  0  0  0
   -7.9511    0.9309   -2.9671 H   0  0  0  0  0  0  0  0  0  0  0  0
    8.7743   -1.5363   -2.2898 H   0  0  0  0  0  0  0  0  0  0  0  0
    8.2141   -3.0261   -4.1794 H   0  0  0  0  0  0  0  0  0  0  0  0
    6.0357   -4.2131   -4.2444 H   0  0  0  0  0  0  0  0  0  0  0  0
    4.3981   -3.8963   -2.3996 H   0  0  0  0  0  0  0  0  0  0  0  0
    8.1551   -2.5871    1.0353 H   0  0  0  0  0  0  0  0  0  0  0  0
    8.7943   -1.1573    2.9340 H   0  0  0  0  0  0  0  0  0  0  0  0
    7.0980    2.2648    0.9266 H   0  0  0  0  0  0  0  0  0  0  0  0
    6.4682    0.8290   -0.9775 H   0  0  0  0  0  0  0  0  0  0  0  0
  1  8  1  0
  8  9  1  0
  9 10  1  0
 10 11  1  0
 11 12  1  0
 12 13  1  0
 12 14  1  0
 14 15  2  0
 15 16  1  0
 16 17  1  0
 17 12  1  0
 16 18  2  0
 18 19  1  0
 19 20  2  0
 20 21  1  0
 21 17  2  0
 14 22  1  0
 22 23  2  0
 23 24  1  0
 24 25  2  0
 25 15  1  0
 13 26  2  0
 13 27  1  0
 27 28  1  0
  7 29  1  0
 29 30  1  0
 29 31  2  0
 30 32  1  0
 32 33  2  0
 33 34  1  0
 34 35  2  0
 35 36  1  0
 36 30  2  0
 32 37  1  0
 37 38  2  0
 38 39  1  0
 39 40  2  0
 40 41  1  0
 41 42  2  0
 42 37  1  0
 40 43  1  0
 28 44  1  0
  1  2  1  0
  2  3  1  0
 44 45  1  0
  3  4  1  0
 44 46  1  0
  4  5  1  0
 44 47  1  0
  5  6  1  0
 43 48  1  0
  6  1  1  0
 43 49  1  0
  4  7  1  0
 43 50  1  0
  2 51  1  0
  2 52  1  0
  3 53  1  0
  3 54  1  0
  4 55  1  0
  5 56  1  0
  5 57  1  0
  6 58  1  0
  6 59  1  0
  7 60  1  0
  8 61  1  0
  8 62  1  0
  9 63  1  0
  9 64  1  0
 10 65  1  0
 10 66  1  0
 11 67  1  0
 11 68  1  0
 18 69  1  0
 19 70  1  0
 20 71  1  0
 21 72  1  0
 22 73  1  0
 23 74  1  0
 24 75  1  0
 25 76  1  0
 27 77  1  0
 28 78  1  0
 28 79  1  0
 33 80  1  0
 34 81  1  0
 35 82  1  0
 36 83  1  0
 38 84  1  0
 39 85  1  0
 41 86  1  0
 42 87  1  0
M  END
$$$$
