
     RDKit          3D

 56 27  0  0  0  0  0  0  0  0999 V2000
    0.0000    0.0000    0.0000 Mg  0  0  0  0  0 15  0  0  0  0  0  0
   -0.0332    0.0364    0.0106 C   0  0  0  0  0  0  0  0  0  0  0  0
   -0.8578   -1.0691   -0.0037 O   0  0  0  0  0  0  0  0  0  0  0  0
    1.3183   -0.1695   -0.2452 O   0  0  0  0  0  0  0  0  0  0  0  0
   -0.4274    1.2022    0.2383 O   0  0  0  0  0  0  0  0  0  0  0  0
    0.4954    0.0000    0.0000 O   0  0  0  0  0  0  0  0  0  0  0  0
    0.4982    0.0000    0.0000 O   0  0  0  0  0  0  0  0  0  0  0  0
    0.4991    0.0000    0.0000 O   0  0  0  0  0  0  0  0  0  0  0  0
    0.0000    0.0000    0.0000 Mg  0  0  0  0  0 15  0  0  0  0  0  0
    0.0000    0.0000    0.0000 Mg  0  0  0  0  0 15  0  0  0  0  0  0
   -0.0040    0.3926   -0.0000 O   0  0  0  0  0  0  0  0  0  0  0  0
    0.4923    0.0000    0.0000 O   0  0  0  0  0  0  0  0  0  0  0  0
    0.4980    0.0000    0.0000 O   0  0  0  0  0  0  0  0  0  0  0  0
    0.4974    0.0000    0.0000 O   0  0  0  0  0  0  0  0  0  0  0  0
    0.4974    0.0000    0.0000 O   0  0  0  0  0  0  0  0  0  0  0  0
    0.4905    0.0000    0.0000 O   0  0  0  0  0  0  0  0  0  0  0  0
    0.4960    0.0000    0.0000 O   0  0  0  0  0  0  0  0  0  0  0  0
    0.4973    0.0000    0.0000 O   0  0  0  0  0  0  0  0  0  0  0  0
    0.4911    0.0000    0.0000 O   0  0  0  0  0  0  0  0  0  0  0  0
    0.4934    0.0000    0.0000 O   0  0  0  0  0  0  0  0  0  0  0  0
    0.4955    0.0000    0.0000 O   0  0  0  0  0  0  0  0  0  0  0  0
    0.4937    0.0000    0.0000 O   0  0  0  0  0  0  0  0  0  0  0  0
    0.4962    0.0000    0.0000 O   0  0  0  0  0  0  0  0  0  0  0  0
    0.4981    0.0000    0.0000 O   0  0  0  0  0  0  0  0  0  0  0  0
   -0.0065    0.3952   -0.0000 O   0  0  0  0  0  0  0  0  0  0  0  0
   -0.0009    0.3774   -0.0000 O   0  0  0  0  0  0  0  0  0  0  0  0
   -0.0015    0.3816   -0.0000 O   0  0  0  0  0  0  0  0  0  0  0  0
    0.0000    0.0000    0.0000 Al  0  0  0  0  0 15  0  0  0  0  0  0
    0.0000    0.0000    0.0000 Al  0  0  0  0  0 15  0  0  0  0  0  0
    0.0000    0.0000    0.0000 Mg  0  0  0  0  0 15  0  0  0  0  0  0
    0.0000    0.0000    0.0000 Mg  0  0  0  0  0 15  0  0  0  0  0  0
    0.0000    0.0000    0.0000 Mg  0  0  0  0  0 15  0  0  0  0  0  0
   -0.4954    0.0000    0.0000 H   0  0  0  0  0  0  0  0  0  0  0  0
   -0.4982    0.0000    0.0000 H   0  0  0  0  0  0  0  0  0  0  0  0
   -0.4991    0.0000    0.0000 H   0  0  0  0  0  0  0  0  0  0  0  0
   -0.7909   -0.1979   -0.0000 H   0  0  0  0  0  0  0  0  0  0  0  0
    0.7949   -0.1948    0.0000 H   0  0  0  0  0  0  0  0  0  0  0  0
   -0.4923    0.0000    0.0000 H   0  0  0  0  0  0  0  0  0  0  0  0
   -0.4980    0.0000    0.0000 H   0  0  0  0  0  0  0  0  0  0  0  0
   -0.4974    0.0000    0.0000 H   0  0  0  0  0  0  0  0  0  0  0  0
   -0.4974    0.0000    0.0000 H   0  0  0  0  0  0  0  0  0  0  0  0
   -0.4905    0.0000    0.0000 H   0  0  0  0  0  0  0  0  0  0  0  0
   -0.4960    0.0000    0.0000 H   0  0  0  0  0  0  0  0  0  0  0  0
   -0.4973    0.0000    0.0000 H   0  0  0  0  0  0  0  0  0  0  0  0
   -0.4911    0.0000    0.0000 H   0  0  0  0  0  0  0  0  0  0  0  0
   -0.4934    0.0000    0.0000 H   0  0  0  0  0  0  0  0  0  0  0  0
   -0.4955    0.0000    0.0000 H   0  0  0  0  0  0  0  0  0  0  0  0
   -0.4937    0.0000    0.0000 H   0  0  0  0  0  0  0  0  0  0  0  0
   -0.4962    0.0000    0.0000 H   0  0  0  0  0  0  0  0  0  0  0  0
   -0.4981    0.0000    0.0000 H   0  0  0  0  0  0  0  0  0  0  0  0
   -0.7890   -0.2001   -0.0000 H   0  0  0  0  0  0  0  0  0  0  0  0
    0.7955   -0.1951    0.0000 H   0  0  0  0  0  0  0  0  0  0  0  0
    0.8170   -0.1884    0.0000 H   0  0  0  0  0  0  0  0  0  0  0  0
   -0.8161   -0.1890   -0.0000 H   0  0  0  0  0  0  0  0  0  0  0  0
   -0.8119   -0.1914   -0.0000 H   0  0  0  0  0  0  0  0  0  0  0  0
    0.8134   -0.1903    0.0000 H   0  0  0  0  0  0  0  0  0  0  0  0
  3  2  1  0
  4  2  1  0
  5  2  2  0
  6 33  1  0
  7 34  1  0
  8 35  1  0
 11 36  1  0
 11 37  1  0
 12 38  1  0
 13 39  1  0
 14 40  1  0
 15 41  1  0
 16 42  1  0
 17 43  1  0
 18 44  1  0
 19 45  1  0
 20 46  1  0
 21 47  1  0
 22 48  1  0
 23 49  1  0
 24 50  1  0
 25 51  1  0
 25 52  1  0
 26 53  1  0
 26 54  1  0
 27 55  1  0
 27 56  1  0
M  CHG  8   1   2   3  -1   4  -1   6  -1   7  -1   8  -1   9   2  10   2
M  CHG  8  12  -1  13  -1  14  -1  15  -1  16  -1  17  -1  18  -1  19  -1
M  CHG  8  20  -1  21  -1  22  -1  23  -1  24  -1  28   3  29   3  30   2
M  CHG  2  31   2  32   2
M  END
$$$$
