
     RDKit          3D

 56 27  0  0  0  0  0  0  0  0999 V2000
    0.0000    0.0000    0.0000 Mg  0  0  0  0  0 15  0  0  0  0  0  0
    0.0068    0.0276   -0.0001 C   0  0  0  0  0  0  0  0  0  0  0  0
    1.2751   -0.5158   -0.0170 O   0  0  0  0  0  0  0  0  0  0  0  0
   -1.1062   -0.7904    0.0139 O   0  0  0  0  0  0  0  0  0  0  0  0
   -0.1757    1.2786    0.0032 O   0  0  0  0  0  0  0  0  0  0  0  0
    0.4986    0.0000    0.0000 O   0  0  0  0  0  0  0  0  0  0  0  0
    0.4981    0.0000    0.0000 O   0  0  0  0  0  0  0  0  0  0  0  0
    0.4991    0.0000    0.0000 O   0  0  0  0  0  0  0  0  0  0  0  0
    0.0000    0.0000    0.0000 Mg  0  0  0  0  0 15  0  0  0  0  0  0
    0.0000    0.0000    0.0000 Mg  0  0  0  0  0 15  0  0  0  0  0  0
   -0.0056    0.3650   -0.0000 O   0  0  0  0  0  0  0  0  0  0  0  0
    0.4966    0.0000    0.0000 O   0  0  0  0  0  0  0  0  0  0  0  0
    0.4974    0.0000    0.0000 O   0  0  0  0  0  0  0  0  0  0  0  0
    0.4941    0.0000    0.0000 O   0  0  0  0  0  0  0  0  0  0  0  0
    0.4960    0.0000    0.0000 O   0  0  0  0  0  0  0  0  0  0  0  0
    0.4919    0.0000    0.0000 O   0  0  0  0  0  0  0  0  0  0  0  0
    0.4979    0.0000    0.0000 O   0  0  0  0  0  0  0  0  0  0  0  0
    0.4987    0.0000    0.0000 O   0  0  0  0  0  0  0  0  0  0  0  0
    0.4915    0.0000    0.0000 O   0  0  0  0  0  0  0  0  0  0  0  0
    0.4933    0.0000    0.0000 O   0  0  0  0  0  0  0  0  0  0  0  0
    0.4927    0.0000    0.0000 O   0  0  0  0  0  0  0  0  0  0  0  0
    0.4957    0.0000    0.0000 O   0  0  0  0  0  0  0  0  0  0  0  0
    0.4976    0.0000    0.0000 O   0  0  0  0  0  0  0  0  0  0  0  0
    0.5000    0.0000    0.0000 O   0  0  0  0  0  0  0  0  0  0  0  0
   -0.0076    0.3922   -0.0000 O   0  0  0  0  0  0  0  0  0  0  0  0
   -0.0062    0.3940   -0.0000 O   0  0  0  0  0  0  0  0  0  0  0  0
   -0.0078    0.3908   -0.0000 O   0  0  0  0  0  0  0  0  0  0  0  0
    0.0000    0.0000    0.0000 Al  0  0  0  0  0 15  0  0  0  0  0  0
    0.0000    0.0000    0.0000 Al  0  0  0  0  0 15  0  0  0  0  0  0
    0.0000    0.0000    0.0000 Mg  0  0  0  0  0 15  0  0  0  0  0  0
    0.0000    0.0000    0.0000 Mg  0  0  0  0  0 15  0  0  0  0  0  0
    0.0000    0.0000    0.0000 Mg  0  0  0  0  0 15  0  0  0  0  0  0
   -0.4986    0.0000    0.0000 H   0  0  0  0  0  0  0  0  0  0  0  0
   -0.4981    0.0000    0.0000 H   0  0  0  0  0  0  0  0  0  0  0  0
   -0.4991    0.0000    0.0000 H   0  0  0  0  0  0  0  0  0  0  0  0
   -0.8218   -0.1844   -0.0000 H   0  0  0  0  0  0  0  0  0  0  0  0
    0.8274   -0.1806    0.0000 H   0  0  0  0  0  0  0  0  0  0  0  0
   -0.4966    0.0000    0.0000 H   0  0  0  0  0  0  0  0  0  0  0  0
   -0.4974    0.0000    0.0000 H   0  0  0  0  0  0  0  0  0  0  0  0
   -0.4941    0.0000    0.0000 H   0  0  0  0  0  0  0  0  0  0  0  0
   -0.4960    0.0000    0.0000 H   0  0  0  0  0  0  0  0  0  0  0  0
   -0.4919    0.0000    0.0000 H   0  0  0  0  0  0  0  0  0  0  0  0
   -0.4979    0.0000    0.0000 H   0  0  0  0  0  0  0  0  0  0  0  0
   -0.4987    0.0000    0.0000 H   0  0  0  0  0  0  0  0  0  0  0  0
   -0.4915    0.0000    0.0000 H   0  0  0  0  0  0  0  0  0  0  0  0
   -0.4933    0.0000    0.0000 H   0  0  0  0  0  0  0  0  0  0  0  0
   -0.4927    0.0000    0.0000 H   0  0  0  0  0  0  0  0  0  0  0  0
   -0.4957    0.0000    0.0000 H   0  0  0  0  0  0  0  0  0  0  0  0
   -0.4976    0.0000    0.0000 H   0  0  0  0  0  0  0  0  0  0  0  0
   -0.5000    0.0000    0.0000 H   0  0  0  0  0  0  0  0  0  0  0  0
    0.7982   -0.1933    0.0000 H   0  0  0  0  0  0  0  0  0  0  0  0
   -0.7906   -0.1989   -0.0000 H   0  0  0  0  0  0  0  0  0  0  0  0
   -0.7898   -0.1994   -0.0000 H   0  0  0  0  0  0  0  0  0  0  0  0
    0.7960   -0.1946    0.0000 H   0  0  0  0  0  0  0  0  0  0  0  0
    0.8036   -0.1926    0.0000 H   0  0  0  0  0  0  0  0  0  0  0  0
   -0.7958   -0.1982   -0.0000 H   0  0  0  0  0  0  0  0  0  0  0  0
  3  2  1  0
  4  2  1  0
  5  2  2  0
  6 33  1  0
  7 34  1  0
  8 35  1  0
 11 36  1  0
 11 37  1  0
 12 38  1  0
 13 39  1  0
 14 40  1  0
 15 41  1  0
 16 42  1  0
 17 43  1  0
 18 44  1  0
 19 45  1  0
 20 46  1  0
 21 47  1  0
 22 48  1  0
 23 49  1  0
 24 50  1  0
 25 51  1  0
 25 52  1  0
 26 53  1  0
 26 54  1  0
 27 55  1  0
 27 56  1  0
M  CHG  8   1   2   3  -1   4  -1   6  -1   7  -1   8  -1   9   2  10   2
M  CHG  8  12  -1  13  -1  14  -1  15  -1  16  -1  17  -1  18  -1  19  -1
M  CHG  8  20  -1  21  -1  22  -1  23  -1  24  -1  28   3  29   3  30   2
M  CHG  2  31   2  32   2
M  END
$$$$
