
     RDKit          3D

 56 27  0  0  0  0  0  0  0  0999 V2000
    0.0000    0.0000    0.0000 Mg  0  0  0  0  0 15  0  0  0  0  0  0
   -0.0054    0.0255    0.0010 C   0  0  0  0  0  0  0  0  0  0  0  0
    1.2181   -0.6154    0.0509 O   0  0  0  0  0  0  0  0  0  0  0  0
   -1.1772   -0.6891   -0.1203 O   0  0  0  0  0  0  0  0  0  0  0  0
   -0.0356    1.2791    0.0684 O   0  0  0  0  0  0  0  0  0  0  0  0
    0.4984    0.0000    0.0000 O   0  0  0  0  0  0  0  0  0  0  0  0
    0.4918    0.0000    0.0000 O   0  0  0  0  0  0  0  0  0  0  0  0
    0.4904    0.0000    0.0000 O   0  0  0  0  0  0  0  0  0  0  0  0
    0.0000    0.0000    0.0000 Mg  0  0  0  0  0 15  0  0  0  0  0  0
    0.0000    0.0000    0.0000 Mg  0  0  0  0  0 15  0  0  0  0  0  0
   -0.0043    0.3746   -0.0000 O   0  0  0  0  0  0  0  0  0  0  0  0
    0.4902    0.0000    0.0000 O   0  0  0  0  0  0  0  0  0  0  0  0
    0.4984    0.0000    0.0000 O   0  0  0  0  0  0  0  0  0  0  0  0
    0.4931    0.0000    0.0000 O   0  0  0  0  0  0  0  0  0  0  0  0
    0.4908    0.0000    0.0000 O   0  0  0  0  0  0  0  0  0  0  0  0
    0.4908    0.0000    0.0000 O   0  0  0  0  0  0  0  0  0  0  0  0
    0.4933    0.0000    0.0000 O   0  0  0  0  0  0  0  0  0  0  0  0
    0.4989    0.0000    0.0000 O   0  0  0  0  0  0  0  0  0  0  0  0
    0.4971    0.0000    0.0000 O   0  0  0  0  0  0  0  0  0  0  0  0
    0.4955    0.0000    0.0000 O   0  0  0  0  0  0  0  0  0  0  0  0
    0.4999    0.0000    0.0000 O   0  0  0  0  0  0  0  0  0  0  0  0
    0.4906    0.0000    0.0000 O   0  0  0  0  0  0  0  0  0  0  0  0
    0.4913    0.0000    0.0000 O   0  0  0  0  0  0  0  0  0  0  0  0
    0.4949    0.0000    0.0000 O   0  0  0  0  0  0  0  0  0  0  0  0
   -0.0007    0.3782   -0.0000 O   0  0  0  0  0  0  0  0  0  0  0  0
   -0.0003    0.3868   -0.0000 O   0  0  0  0  0  0  0  0  0  0  0  0
   -0.0081    0.3740   -0.0000 O   0  0  0  0  0  0  0  0  0  0  0  0
    0.0000    0.0000    0.0000 Al  0  0  0  0  0 15  0  0  0  0  0  0
    0.0000    0.0000    0.0000 Al  0  0  0  0  0 15  0  0  0  0  0  0
    0.0000    0.0000    0.0000 Mg  0  0  0  0  0 15  0  0  0  0  0  0
    0.0000    0.0000    0.0000 Mg  0  0  0  0  0 15  0  0  0  0  0  0
    0.0000    0.0000    0.0000 Mg  0  0  0  0  0 15  0  0  0  0  0  0
   -0.4984    0.0000    0.0000 H   0  0  0  0  0  0  0  0  0  0  0  0
   -0.4918    0.0000    0.0000 H   0  0  0  0  0  0  0  0  0  0  0  0
   -0.4904    0.0000    0.0000 H   0  0  0  0  0  0  0  0  0  0  0  0
    0.8123   -0.1858    0.0000 H   0  0  0  0  0  0  0  0  0  0  0  0
   -0.8079   -0.1888   -0.0000 H   0  0  0  0  0  0  0  0  0  0  0  0
   -0.4902    0.0000    0.0000 H   0  0  0  0  0  0  0  0  0  0  0  0
   -0.4984    0.0000    0.0000 H   0  0  0  0  0  0  0  0  0  0  0  0
   -0.4931    0.0000    0.0000 H   0  0  0  0  0  0  0  0  0  0  0  0
   -0.4908    0.0000    0.0000 H   0  0  0  0  0  0  0  0  0  0  0  0
   -0.4908    0.0000    0.0000 H   0  0  0  0  0  0  0  0  0  0  0  0
   -0.4933    0.0000    0.0000 H   0  0  0  0  0  0  0  0  0  0  0  0
   -0.4989    0.0000    0.0000 H   0  0  0  0  0  0  0  0  0  0  0  0
   -0.4971    0.0000    0.0000 H   0  0  0  0  0  0  0  0  0  0  0  0
   -0.4955    0.0000    0.0000 H   0  0  0  0  0  0  0  0  0  0  0  0
   -0.4999    0.0000    0.0000 H   0  0  0  0  0  0  0  0  0  0  0  0
   -0.4906    0.0000    0.0000 H   0  0  0  0  0  0  0  0  0  0  0  0
   -0.4913    0.0000    0.0000 H   0  0  0  0  0  0  0  0  0  0  0  0
   -0.4949    0.0000    0.0000 H   0  0  0  0  0  0  0  0  0  0  0  0
   -0.8026   -0.1894   -0.0000 H   0  0  0  0  0  0  0  0  0  0  0  0
    0.8033   -0.1888    0.0000 H   0  0  0  0  0  0  0  0  0  0  0  0
   -0.7998   -0.1935   -0.0000 H   0  0  0  0  0  0  0  0  0  0  0  0
    0.8000   -0.1933    0.0000 H   0  0  0  0  0  0  0  0  0  0  0  0
    0.8204   -0.1842    0.0000 H   0  0  0  0  0  0  0  0  0  0  0  0
   -0.8124   -0.1897   -0.0000 H   0  0  0  0  0  0  0  0  0  0  0  0
  3  2  1  0
  4  2  1  0
  5  2  2  0
  6 33  1  0
  7 34  1  0
  8 35  1  0
 11 36  1  0
 11 37  1  0
 12 38  1  0
 13 39  1  0
 14 40  1  0
 15 41  1  0
 16 42  1  0
 17 43  1  0
 18 44  1  0
 19 45  1  0
 20 46  1  0
 21 47  1  0
 22 48  1  0
 23 49  1  0
 24 50  1  0
 25 51  1  0
 25 52  1  0
 26 53  1  0
 26 54  1  0
 27 55  1  0
 27 56  1  0
M  CHG  8   1   2   3  -1   4  -1   6  -1   7  -1   8  -1   9   2  10   2
M  CHG  8  12  -1  13  -1  14  -1  15  -1  16  -1  17  -1  18  -1  19  -1
M  CHG  8  20  -1  21  -1  22  -1  23  -1  24  -1  28   3  29   3  30   2
M  CHG  2  31   2  32   2
M  END
$$$$
