
     RDKit          3D

100105  0  0  0  0  0  0  0  0999 V2000
    5.1367    2.4083    0.4213 N   0  0  0  0  0  0  0  0  0  0  0  0
    6.5477    2.2322    0.4175 C   0  0  0  0  0  0  0  0  0  0  0  0
   -4.5075   -1.5513   -1.0760 N   0  0  0  0  0  0  0  0  0  0  0  0
   -5.8602   -2.2488    0.8529 C   0  0  0  0  0  0  0  0  0  0  0  0
   -4.5453   -1.6636    0.3572 C   0  0  0  0  0  0  0  0  0  0  0  0
    4.6290    1.5530    1.2633 C   0  0  0  0  0  0  0  0  0  0  0  0
    5.6815    0.6832    1.9398 C   0  0  0  0  0  0  0  0  0  0  0  0
    6.9357    1.2355    1.2886 C   0  0  0  0  0  0  0  0  0  0  0  0
   -6.5342   -2.5752   -0.4682 C   0  0  0  0  0  0  0  0  0  0  0  0
   -5.7121   -2.1768   -1.5126 C   0  0  0  0  0  0  0  0  0  0  0  0
   -5.5151    3.7222    0.9751 S   0  0  0  0  0  0  0  0  0  0  0  0
    5.3454   -0.1454   -3.4903 S   0  0  0  0  0  0  0  0  0  0  0  0
    8.3050    0.9144    1.4496 C   0  0  0  0  0  0  0  0  0  0  0  0
   -7.7993   -3.1610   -0.7379 C   0  0  0  0  0  0  0  0  0  0  0  0
    7.4751    2.9665   -0.3242 C   0  0  0  0  0  0  0  0  0  0  0  0
   -6.0838   -2.3587   -2.8468 C   0  0  0  0  0  0  0  0  0  0  0  0
   -6.5702    5.0281    0.9182 O   0  0  0  0  0  0  0  0  0  0  0  0
    5.5675   -0.7397   -5.0455 O   0  0  0  0  0  0  0  0  0  0  0  0
   -3.5234   -1.3555    1.1783 C   0  0  0  0  0  0  0  0  0  0  0  0
    3.1923    1.5217    1.6099 C   0  0  0  0  0  0  0  0  0  0  0  0
   -5.9114    2.8155    2.1061 O   0  0  0  0  0  0  0  0  0  0  0  0
   -4.1153    4.2212    1.2011 O   0  0  0  0  0  0  0  0  0  0  0  0
    6.5591    0.6462   -3.0890 O   0  0  0  0  0  0  0  0  0  0  0  0
    5.1726   -1.2989   -2.5433 O   0  0  0  0  0  0  0  0  0  0  0  0
   -2.1340   -1.2055    0.7252 C   0  0  0  0  0  0  0  0  0  0  0  0
    2.3954    0.5375    1.1956 C   0  0  0  0  0  0  0  0  0  0  0  0
    0.9689    0.5168    1.5517 C   0  0  0  0  0  0  0  0  0  0  0  0
    0.1432   -0.3782    1.0040 C   0  0  0  0  0  0  0  0  0  0  0  0
   -1.2675   -0.4599    1.4081 C   0  0  0  0  0  0  0  0  0  0  0  0
    4.3901    3.3293   -0.4514 C   0  0  0  0  0  0  0  0  0  0  0  0
   -8.1768   -3.3504   -2.0995 C   0  0  0  0  0  0  0  0  0  0  0  0
    9.2588    1.6435    0.6796 C   0  0  0  0  0  0  0  0  0  0  0  0
   -7.3137   -2.9503   -3.1361 C   0  0  0  0  0  0  0  0  0  0  0  0
    8.8334    2.6609   -0.1979 C   0  0  0  0  0  0  0  0  0  0  0  0
   -3.8860   -0.4458   -1.8324 C   0  0  0  0  0  0  0  0  0  0  0  0
   -5.5857   -3.5247    1.6782 C   0  0  0  0  0  0  0  0  0  0  0  0
   -6.6435   -1.1871    1.6500 C   0  0  0  0  0  0  0  0  0  0  0  0
    5.4575   -0.7987    1.5885 C   0  0  0  0  0  0  0  0  0  0  0  0
    5.6606    0.9317    3.4584 C   0  0  0  0  0  0  0  0  0  0  0  0
   -5.5953    2.8310   -0.5700 C   0  0  0  0  0  0  0  0  0  0  0  0
    3.8760    0.8771   -3.4603 C   0  0  0  0  0  0  0  0  0  0  0  0
   -8.6999   -3.5551    0.2720 C   0  0  0  0  0  0  0  0  0  0  0  0
    8.7637   -0.0831    2.3314 C   0  0  0  0  0  0  0  0  0  0  0  0
   10.6269    1.3529    0.8039 C   0  0  0  0  0  0  0  0  0  0  0  0
   -9.4141   -3.9361   -2.4106 C   0  0  0  0  0  0  0  0  0  0  0  0
    4.3854    2.8353   -1.9074 C   0  0  0  0  0  0  0  0  0  0  0  0
   -4.7733    0.8119   -1.8453 C   0  0  0  0  0  0  0  0  0  0  0  0
   -4.6893    1.5993   -0.5305 C   0  0  0  0  0  0  0  0  0  0  0  0
    3.6427    1.4997   -2.0745 C   0  0  0  0  0  0  0  0  0  0  0  0
   10.1300   -0.3558    2.4429 C   0  0  0  0  0  0  0  0  0  0  0  0
   -9.9275   -4.1339   -0.0564 C   0  0  0  0  0  0  0  0  0  0  0  0
  -10.2828   -4.3247   -1.3913 C   0  0  0  0  0  0  0  0  0  0  0  0
   11.0569    0.3567    1.6818 C   0  0  0  0  0  0  0  0  0  0  0  0
    7.1621    3.7671   -0.9805 H   0  0  0  0  0  0  0  0  0  0  0  0
   -5.4343   -2.0575   -3.6573 H   0  0  0  0  0  0  0  0  0  0  0  0
   -3.6933   -1.3492    2.2476 H   0  0  0  0  0  0  0  0  0  0  0  0
    2.7860    2.3521    2.1773 H   0  0  0  0  0  0  0  0  0  0  0  0
   -1.8075   -1.7401   -0.1571 H   0  0  0  0  0  0  0  0  0  0  0  0
    2.7979   -0.2579    0.5810 H   0  0  0  0  0  0  0  0  0  0  0  0
    0.5888    1.2354    2.2678 H   0  0  0  0  0  0  0  0  0  0  0  0
    0.5171   -1.0721    0.2619 H   0  0  0  0  0  0  0  0  0  0  0  0
   -1.6047    0.0977    2.2726 H   0  0  0  0  0  0  0  0  0  0  0  0
    3.3451    3.4659   -0.0993 H   0  0  0  0  0  0  0  0  0  0  0  0
    4.8693    4.3302   -0.4131 H   0  0  0  0  0  0  0  0  0  0  0  0
   -7.5951   -3.0896   -4.1727 H   0  0  0  0  0  0  0  0  0  0  0  0
    9.5534    3.2245   -0.7782 H   0  0  0  0  0  0  0  0  0  0  0  0
   -2.8850   -0.1836   -1.4452 H   0  0  0  0  0  0  0  0  0  0  0  0
   -3.7171   -0.7717   -2.8794 H   0  0  0  0  0  0  0  0  0  0  0  0
   -5.0142   -3.2832    2.5990 H   0  0  0  0  0  0  0  0  0  0  0  0
   -4.9894   -4.2477    1.0802 H   0  0  0  0  0  0  0  0  0  0  0  0
   -6.5153   -4.0298    1.9976 H   0  0  0  0  0  0  0  0  0  0  0  0
   -6.9269   -0.3363    0.9918 H   0  0  0  0  0  0  0  0  0  0  0  0
   -7.5674   -1.6044    2.0947 H   0  0  0  0  0  0  0  0  0  0  0  0
   -6.0288   -0.7942    2.4877 H   0  0  0  0  0  0  0  0  0  0  0  0
    6.2698   -1.4423    1.9744 H   0  0  0  0  0  0  0  0  0  0  0  0
    4.5105   -1.1660    2.0369 H   0  0  0  0  0  0  0  0  0  0  0  0
    5.4068   -0.9348    0.4871 H   0  0  0  0  0  0  0  0  0  0  0  0
    6.4100    0.3148    3.9903 H   0  0  0  0  0  0  0  0  0  0  0  0
    4.6632    0.6750    3.8766 H   0  0  0  0  0  0  0  0  0  0  0  0
    5.8650    2.0011    3.6814 H   0  0  0  0  0  0  0  0  0  0  0  0
   -5.2749    3.5108   -1.3897 H   0  0  0  0  0  0  0  0  0  0  0  0
   -6.6490    2.5219   -0.7476 H   0  0  0  0  0  0  0  0  0  0  0  0
    3.0097    0.2276   -3.7130 H   0  0  0  0  0  0  0  0  0  0  0  0
    3.9477    1.6609   -4.2448 H   0  0  0  0  0  0  0  0  0  0  0  0
   -8.4831   -3.4254    1.3154 H   0  0  0  0  0  0  0  0  0  0  0  0
    8.0911   -0.6591    2.9431 H   0  0  0  0  0  0  0  0  0  0  0  0
   11.3630    1.8976    0.2253 H   0  0  0  0  0  0  0  0  0  0  0  0
   -9.7103   -4.0903   -3.4424 H   0  0  0  0  0  0  0  0  0  0  0  0
    3.8900    3.6015   -2.5428 H   0  0  0  0  0  0  0  0  0  0  0  0
    5.4294    2.7420   -2.2652 H   0  0  0  0  0  0  0  0  0  0  0  0
   -5.8289    0.5334   -2.0565 H   0  0  0  0  0  0  0  0  0  0  0  0
   -4.4295    1.4713   -2.6721 H   0  0  0  0  0  0  0  0  0  0  0  0
   -5.0042    0.9586    0.3160 H   0  0  0  0  0  0  0  0  0  0  0  0
   -3.6374    1.9180   -0.3576 H   0  0  0  0  0  0  0  0  0  0  0  0
    3.9554    0.7762   -1.2988 H   0  0  0  0  0  0  0  0  0  0  0  0
    2.5535    1.6827   -1.9367 H   0  0  0  0  0  0  0  0  0  0  0  0
   10.4719   -1.1254    3.1237 H   0  0  0  0  0  0  0  0  0  0  0  0
  -10.6065   -4.4375    0.7294 H   0  0  0  0  0  0  0  0  0  0  0  0
  -11.2365   -4.7727   -1.6371 H   0  0  0  0  0  0  0  0  0  0  0  0
   12.1128    0.1378    1.7756 H   0  0  0  0  0  0  0  0  0  0  0  0
  2  1  1  0
  3  5  1  0
  4  5  1  0
  5 19  2  0
  6  1  2  0
  7  6  1  0
  8  2  2  0
  9  4  1  0
 10  3  1  0
 11 40  1  0
 12 41  1  0
 13  8  1  0
 14  9  2  0
 15  2  1  0
 16 10  2  0
 17 11  1  0
 18 12  1  0
 19 25  1  0
 20  6  1  0
 21 11  2  0
 22 11  2  0
 23 12  2  0
 24 12  2  0
 25 29  2  0
 26 20  2  0
 27 26  1  0
 28 27  2  0
 29 28  1  0
 30  1  1  0
 31 14  1  0
 32 34  1  0
 33 16  1  0
 34 15  2  0
 35  3  1  0
 36  4  1  0
 37  4  1  0
 38  7  1  0
 39  7  1  0
 40 48  1  0
 41 49  1  0
 42 14  1  0
 43 13  2  0
 44 32  2  0
 45 31  1  0
 46 30  1  0
 47 35  1  0
 48 47  1  0
 49 46  1  0
 50 43  1  0
 51 42  2  0
 52 51  1  0
 53 44  1  0
  7  8  1  0
 13 32  1  0
 53 50  2  0
 10  9  1  0
 31 33  2  0
 52 45  2  0
 15 54  1  0
 16 55  1  0
 19 56  1  0
 20 57  1  0
 25 58  1  0
 26 59  1  0
 27 60  1  0
 28 61  1  0
 29 62  1  0
 30 63  1  0
 30 64  1  0
 33 65  1  0
 34 66  1  0
 35 67  1  0
 35 68  1  0
 36 69  1  0
 36 70  1  0
 36 71  1  0
 37 72  1  0
 37 73  1  0
 37 74  1  0
 38 75  1  0
 38 76  1  0
 38 77  1  0
 39 78  1  0
 39 79  1  0
 39 80  1  0
 40 81  1  0
 40 82  1  0
 41 83  1  0
 41 84  1  0
 42 85  1  0
 43 86  1  0
 44 87  1  0
 45 88  1  0
 46 89  1  0
 46 90  1  0
 47 91  1  0
 47 92  1  0
 48 93  1  0
 48 94  1  0
 49 95  1  0
 49 96  1  0
 50 97  1  0
 51 98  1  0
 52 99  1  0
 53100  1  0
M  CHG  3   1   1  17  -1  18  -1
M  END
$$$$
