
     RDKit          3D

 54 58  0  0  0  0  0  0  0  0999 V2000
    0.0000    0.0000    0.0000 Na  0  0  0  0  0 15  0  0  0  0  0  0
   -5.0614   -1.2287    0.9102 N   0  0  0  0  0  0  0  0  0  0  0  0
   -6.4075   -1.6708    0.9581 C   0  0  0  0  0  0  0  0  0  0  0  0
    4.7272    0.6412   -0.7949 N   0  0  0  0  0  0  0  0  0  0  0  0
    5.7719    2.3164    0.5228 C   0  0  0  0  0  0  0  0  0  0  0  0
    4.5054    1.5791    0.2498 C   0  0  0  0  0  0  0  0  0  0  0  0
   -4.8431   -0.3036    1.7828 C   0  0  0  0  0  0  0  0  0  0  0  0
   -6.0815   -0.0049    2.5540 C   0  0  0  0  0  0  0  0  0  0  0  0
   -7.0527   -0.9418    1.9516 C   0  0  0  0  0  0  0  0  0  0  0  0
    6.7230    1.7490   -0.4622 C   0  0  0  0  0  0  0  0  0  0  0  0
    6.0972    0.7746   -1.2073 C   0  0  0  0  0  0  0  0  0  0  0  0
    6.7586   -3.7837   -0.4751 S   0  0  0  0  0  0  0  0  0  0  0  0
   -5.3032    1.8344   -3.6097 S   0  0  0  0  0  0  0  0  0  0  0  0
   -8.3891   -1.2192    2.1663 C   0  0  0  0  0  0  0  0  0  0  0  0
    8.0454    2.0764   -0.6680 C   0  0  0  0  0  0  0  0  0  0  0  0
   -7.0868   -2.6233    0.2305 C   0  0  0  0  0  0  0  0  0  0  0  0
    6.8170    0.1146   -2.1801 C   0  0  0  0  0  0  0  0  0  0  0  0
    7.9338   -2.7899    0.1901 O   0  0  0  0  0  0  0  0  0  0  0  0
   -5.7536    1.8964   -5.2294 O   0  0  0  0  0  0  0  0  0  0  0  0
    3.3898    1.8261    0.9167 C   0  0  0  0  0  0  0  0  0  0  0  0
   -3.5823    0.4115    2.0501 C   0  0  0  0  0  0  0  0  0  0  0  0
    6.3755   -4.8566    0.5177 O   0  0  0  0  0  0  0  0  0  0  0  0
    7.3205   -4.4301   -1.7317 O   0  0  0  0  0  0  0  0  0  0  0  0
   -6.4670    2.3949   -2.8075 O   0  0  0  0  0  0  0  0  0  0  0  0
   -4.0652    2.6591   -3.4558 O   0  0  0  0  0  0  0  0  0  0  0  0
    2.1859    1.0726    0.5888 C   0  0  0  0  0  0  0  0  0  0  0  0
   -2.4872    0.1474    1.3712 C   0  0  0  0  0  0  0  0  0  0  0  0
   -1.2642    0.8903    1.6812 C   0  0  0  0  0  0  0  0  0  0  0  0
   -0.1925    0.5970    0.9816 C   0  0  0  0  0  0  0  0  0  0  0  0
    1.0601    1.2957    1.2353 C   0  0  0  0  0  0  0  0  0  0  0  0
   -4.0511   -1.7415   -0.0000 C   0  0  0  0  0  0  0  0  0  0  0  0
    8.7598    1.4218   -1.6334 C   0  0  0  0  0  0  0  0  0  0  0  0
   -9.0689   -2.1658    1.4451 C   0  0  0  0  0  0  0  0  0  0  0  0
    8.1331    0.4483   -2.3766 C   0  0  0  0  0  0  0  0  0  0  0  0
   -8.4167   -2.8829    0.4613 C   0  0  0  0  0  0  0  0  0  0  0  0
    3.7811   -0.2820   -1.3480 C   0  0  0  0  0  0  0  0  0  0  0  0
    6.2172    2.1501    1.9463 C   0  0  0  0  0  0  0  0  0  0  0  0
    5.5343    3.7954    0.3016 C   0  0  0  0  0  0  0  0  0  0  0  0
   -6.4433    1.4318    2.3223 C   0  0  0  0  0  0  0  0  0  0  0  0
   -5.8882   -0.3175    4.0315 C   0  0  0  0  0  0  0  0  0  0  0  0
    5.3357   -2.8533   -0.9779 C   0  0  0  0  0  0  0  0  0  0  0  0
   -5.0528    0.1417   -3.1444 C   0  0  0  0  0  0  0  0  0  0  0  0
    8.6607    3.0693    0.0996 C   0  0  0  0  0  0  0  0  0  0  0  0
   -9.0920   -0.5310    3.1401 C   0  0  0  0  0  0  0  0  0  0  0  0
  -10.4083   -2.4188    1.6866 C   0  0  0  0  0  0  0  0  0  0  0  0
   10.1004    1.7037   -1.8936 C   0  0  0  0  0  0  0  0  0  0  0  0
   -4.4657   -1.5151   -1.4472 C   0  0  0  0  0  0  0  0  0  0  0  0
    3.4661   -1.3292   -0.3063 C   0  0  0  0  0  0  0  0  0  0  0  0
    4.6736   -2.1152    0.1384 C   0  0  0  0  0  0  0  0  0  0  0  0
   -4.6474   -0.0197   -1.7145 C   0  0  0  0  0  0  0  0  0  0  0  0
  -10.4078   -0.7445    3.4135 C   0  0  0  0  0  0  0  0  0  0  0  0
    9.9943    3.3529   -0.1561 C   0  0  0  0  0  0  0  0  0  0  0  0
   10.6834    2.6733   -1.1369 C   0  0  0  0  0  0  0  0  0  0  0  0
  -11.0713   -1.6961    2.6809 C   0  0  0  0  0  0  0  0  0  0  0  0
  3  2  1  0
  4  6  1  0
  5  6  1  0
  6 20  2  0
  7  2  2  0
  8  7  1  0
  9  3  2  0
 10  5  1  0
 11  4  1  0
 12 41  1  0
 13 42  1  0
 14  9  1  0
 15 10  2  0
 16  3  1  0
 17 11  2  0
 18 12  1  0
 19 13  1  0
 20 26  1  0
 21  7  1  0
 22 12  2  0
 23 12  2  0
 24 13  2  0
 25 13  2  0
 26 30  2  0
 27 21  2  0
 28 27  1  0
 29 28  2  0
 30 29  1  0
 31  2  1  0
 32 15  1  0
 33 35  1  0
 34 17  1  0
 35 16  2  0
 36  4  1  0
 37  5  1  0
 38  5  1  0
 39  8  1  0
 40  8  1  0
 41 49  1  0
 42 50  1  0
 43 15  1  0
 44 14  2  0
 45 33  2  0
 46 32  1  0
 47 31  1  0
 48 36  1  0
 49 48  1  0
 50 47  1  0
 51 44  1  0
 52 43  2  0
 53 52  1  0
 54 45  1  0
  8  9  1  0
 14 33  1  0
 54 51  2  0
 11 10  1  0
 32 34  2  0
 53 46  2  0
M  CHG  4   1   1   2   1  18  -1  19  -1
M  END
