
     RDKit          3D

100105  0  0  0  0  0  0  0  0999 V2000
   -5.5140   -0.2124    0.4160 N   0  0  0  0  0  0  0  0  0  0  0  0
   -6.6100   -1.0766    0.6875 C   0  0  0  0  0  0  0  0  0  0  0  0
    4.9790   -0.1136    1.1853 N   0  0  0  0  0  0  0  0  0  0  0  0
    5.9204    2.1115    0.7350 C   0  0  0  0  0  0  0  0  0  0  0  0
    4.7060    1.1936    0.6460 C   0  0  0  0  0  0  0  0  0  0  0  0
   -4.7772   -0.7820   -0.4998 C   0  0  0  0  0  0  0  0  0  0  0  0
   -5.3394   -2.1058   -0.9855 C   0  0  0  0  0  0  0  0  0  0  0  0
   -6.5650   -2.2094   -0.0984 C   0  0  0  0  0  0  0  0  0  0  0  0
    6.9109    1.1953    1.4343 C   0  0  0  0  0  0  0  0  0  0  0  0
    6.3077   -0.0272    1.6927 C   0  0  0  0  0  0  0  0  0  0  0  0
    4.3862   -0.1515   -3.8741 S   0  0  0  0  0  0  0  0  0  0  0  0
   -4.7760    4.3893   -1.7351 S   0  0  0  0  0  0  0  0  0  0  0  0
   -7.5426   -3.2224    0.0412 C   0  0  0  0  0  0  0  0  0  0  0  0
    8.2519    1.4266    1.8366 C   0  0  0  0  0  0  0  0  0  0  0  0
   -7.5988   -0.8906    1.6560 C   0  0  0  0  0  0  0  0  0  0  0  0
    6.9758   -1.0460    2.3783 C   0  0  0  0  0  0  0  0  0  0  0  0
    2.9230    0.1902   -4.6262 O   0  0  0  0  0  0  0  0  0  0  0  0
   -3.9630    4.3651   -0.2644 O   0  0  0  0  0  0  0  0  0  0  0  0
    3.4957    1.6276    0.2420 C   0  0  0  0  0  0  0  0  0  0  0  0
   -3.4937   -0.2331   -0.9793 C   0  0  0  0  0  0  0  0  0  0  0  0
    5.0965    1.1401   -3.5749 O   0  0  0  0  0  0  0  0  0  0  0  0
    5.2330   -0.9893   -4.7921 O   0  0  0  0  0  0  0  0  0  0  0  0
   -4.9122    5.8130   -2.2019 O   0  0  0  0  0  0  0  0  0  0  0  0
   -3.9880    3.6068   -2.7505 O   0  0  0  0  0  0  0  0  0  0  0  0
    2.2345    0.9601    0.5896 C   0  0  0  0  0  0  0  0  0  0  0  0
   -2.4495   -0.1353   -0.1574 C   0  0  0  0  0  0  0  0  0  0  0  0
   -1.1765    0.4566   -0.5950 C   0  0  0  0  0  0  0  0  0  0  0  0
   -0.1228    0.4723    0.2252 C   0  0  0  0  0  0  0  0  0  0  0  0
    1.1444    1.1084   -0.1635 C   0  0  0  0  0  0  0  0  0  0  0  0
   -5.2914    1.1065    1.0315 C   0  0  0  0  0  0  0  0  0  0  0  0
    8.9410    0.3821    2.5223 C   0  0  0  0  0  0  0  0  0  0  0  0
   -8.5565   -3.0426    1.0252 C   0  0  0  0  0  0  0  0  0  0  0  0
    8.2934   -0.8381    2.7917 C   0  0  0  0  0  0  0  0  0  0  0  0
   -8.5760   -1.8770    1.8186 C   0  0  0  0  0  0  0  0  0  0  0  0
    4.3624   -1.3907    0.7709 C   0  0  0  0  0  0  0  0  0  0  0  0
    6.3968    2.5266   -0.6746 C   0  0  0  0  0  0  0  0  0  0  0  0
    5.5867    3.3345    1.6204 C   0  0  0  0  0  0  0  0  0  0  0  0
   -4.3222   -3.2303   -0.7140 C   0  0  0  0  0  0  0  0  0  0  0  0
   -5.7117   -2.0007   -2.4742 C   0  0  0  0  0  0  0  0  0  0  0  0
    4.0711   -1.0387   -2.3579 C   0  0  0  0  0  0  0  0  0  0  0  0
   -6.4040    3.6727   -1.5625 C   0  0  0  0  0  0  0  0  0  0  0  0
    8.9361    2.6320    1.5814 C   0  0  0  0  0  0  0  0  0  0  0  0
   -7.5510   -4.3975   -0.7344 C   0  0  0  0  0  0  0  0  0  0  0  0
   -9.5299   -4.0358    1.2144 C   0  0  0  0  0  0  0  0  0  0  0  0
   10.2727    0.5683    2.9298 C   0  0  0  0  0  0  0  0  0  0  0  0
   -6.2761    2.1602    0.5022 C   0  0  0  0  0  0  0  0  0  0  0  0
    5.1717   -2.1238   -0.3157 C   0  0  0  0  0  0  0  0  0  0  0  0
    5.3784   -1.3117   -1.6038 C   0  0  0  0  0  0  0  0  0  0  0  0
   -6.3296    2.2306   -1.0401 C   0  0  0  0  0  0  0  0  0  0  0  0
   -8.5258   -5.3773   -0.5279 C   0  0  0  0  0  0  0  0  0  0  0  0
   10.2601    2.8007    1.9966 C   0  0  0  0  0  0  0  0  0  0  0  0
   10.9260    1.7729    2.6657 C   0  0  0  0  0  0  0  0  0  0  0  0
   -9.5109   -5.1974    0.4399 C   0  0  0  0  0  0  0  0  0  0  0  0
   -7.6121   -0.0119    2.2842 H   0  0  0  0  0  0  0  0  0  0  0  0
    6.4881   -1.9877    2.5957 H   0  0  0  0  0  0  0  0  0  0  0  0
    3.4208    2.5961   -0.2373 H   0  0  0  0  0  0  0  0  0  0  0  0
   -3.4037    0.0461   -2.0214 H   0  0  0  0  0  0  0  0  0  0  0  0
    2.1930    0.3636    1.4964 H   0  0  0  0  0  0  0  0  0  0  0  0
   -2.5465   -0.4808    0.8684 H   0  0  0  0  0  0  0  0  0  0  0  0
   -1.1041    0.8994   -1.5874 H   0  0  0  0  0  0  0  0  0  0  0  0
   -0.1958    0.0041    1.2045 H   0  0  0  0  0  0  0  0  0  0  0  0
    1.1933    1.6905   -1.0787 H   0  0  0  0  0  0  0  0  0  0  0  0
   -4.2623    1.4732    0.8487 H   0  0  0  0  0  0  0  0  0  0  0  0
   -5.4000    1.0220    2.1345 H   0  0  0  0  0  0  0  0  0  0  0  0
    8.8091   -1.6301    3.3259 H   0  0  0  0  0  0  0  0  0  0  0  0
   -9.3426   -1.7352    2.5710 H   0  0  0  0  0  0  0  0  0  0  0  0
    3.3328   -1.2627    0.4062 H   0  0  0  0  0  0  0  0  0  0  0  0
    4.2826   -2.0534    1.6568 H   0  0  0  0  0  0  0  0  0  0  0  0
    6.8994    1.6834   -1.1943 H   0  0  0  0  0  0  0  0  0  0  0  0
    7.1065    3.3758   -0.6342 H   0  0  0  0  0  0  0  0  0  0  0  0
    5.5405    2.8656   -1.2964 H   0  0  0  0  0  0  0  0  0  0  0  0
    4.8233    3.9761    1.1311 H   0  0  0  0  0  0  0  0  0  0  0  0
    6.4751    3.9683    1.8078 H   0  0  0  0  0  0  0  0  0  0  0  0
    5.1873    3.0066    2.6060 H   0  0  0  0  0  0  0  0  0  0  0  0
   -4.6895   -4.2136   -1.0651 H   0  0  0  0  0  0  0  0  0  0  0  0
   -4.1067   -3.3021    0.3734 H   0  0  0  0  0  0  0  0  0  0  0  0
   -3.3709   -3.0234   -1.2477 H   0  0  0  0  0  0  0  0  0  0  0  0
   -4.8033   -1.8063   -3.0861 H   0  0  0  0  0  0  0  0  0  0  0  0
   -6.4343   -1.1713   -2.6375 H   0  0  0  0  0  0  0  0  0  0  0  0
   -6.1712   -2.9362   -2.8489 H   0  0  0  0  0  0  0  0  0  0  0  0
    3.3896   -0.4218   -1.7398 H   0  0  0  0  0  0  0  0  0  0  0  0
    3.5670   -1.9972   -2.6058 H   0  0  0  0  0  0  0  0  0  0  0  0
   -6.8814    3.6695   -2.5636 H   0  0  0  0  0  0  0  0  0  0  0  0
   -7.0296    4.3048   -0.8924 H   0  0  0  0  0  0  0  0  0  0  0  0
    8.4743    3.4491    1.0593 H   0  0  0  0  0  0  0  0  0  0  0  0
   -6.8212   -4.5780   -1.5014 H   0  0  0  0  0  0  0  0  0  0  0  0
  -10.3013   -3.9179    1.9661 H   0  0  0  0  0  0  0  0  0  0  0  0
   10.8072   -0.2192    3.4523 H   0  0  0  0  0  0  0  0  0  0  0  0
   -7.2969    1.9491    0.8886 H   0  0  0  0  0  0  0  0  0  0  0  0
   -5.9786    3.1391    0.9354 H   0  0  0  0  0  0  0  0  0  0  0  0
    4.6549   -3.0777   -0.5614 H   0  0  0  0  0  0  0  0  0  0  0  0
    6.1661   -2.4020    0.0920 H   0  0  0  0  0  0  0  0  0  0  0  0
    5.8868   -0.3591   -1.3646 H   0  0  0  0  0  0  0  0  0  0  0  0
    6.0606   -1.8878   -2.2660 H   0  0  0  0  0  0  0  0  0  0  0  0
   -7.2416    1.6881   -1.3755 H   0  0  0  0  0  0  0  0  0  0  0  0
   -5.4600    1.7184   -1.5095 H   0  0  0  0  0  0  0  0  0  0  0  0
   -8.5207   -6.2796   -1.1269 H   0  0  0  0  0  0  0  0  0  0  0  0
   10.7758    3.7313    1.7926 H   0  0  0  0  0  0  0  0  0  0  0  0
   11.9540    1.9110    2.9788 H   0  0  0  0  0  0  0  0  0  0  0  0
  -10.2613   -5.9631    0.5932 H   0  0  0  0  0  0  0  0  0  0  0  0
  2  1  1  0
  3  5  1  0
  4  5  1  0
  5 19  2  0
  6  1  2  0
  7  6  1  0
  8  2  2  0
  9  4  1  0
 10  3  1  0
 11 40  1  0
 12 41  1  0
 13  8  1  0
 14  9  2  0
 15  2  1  0
 16 10  2  0
 17 11  1  0
 18 12  1  0
 19 25  1  0
 20  6  1  0
 21 11  2  0
 22 11  2  0
 23 12  2  0
 24 12  2  0
 25 29  2  0
 26 20  2  0
 27 26  1  0
 28 27  2  0
 29 28  1  0
 30  1  1  0
 31 14  1  0
 32 34  1  0
 33 16  1  0
 34 15  2  0
 35  3  1  0
 36  4  1  0
 37  4  1  0
 38  7  1  0
 39  7  1  0
 40 48  1  0
 41 49  1  0
 42 14  1  0
 43 13  2  0
 44 32  2  0
 45 31  1  0
 46 30  1  0
 47 35  1  0
 48 47  1  0
 49 46  1  0
 50 43  1  0
 51 42  2  0
 52 51  1  0
 53 44  1  0
  7  8  1  0
 13 32  1  0
 53 50  2  0
 10  9  1  0
 31 33  2  0
 52 45  2  0
 15 54  1  0
 16 55  1  0
 19 56  1  0
 20 57  1  0
 25 58  1  0
 26 59  1  0
 27 60  1  0
 28 61  1  0
 29 62  1  0
 30 63  1  0
 30 64  1  0
 33 65  1  0
 34 66  1  0
 35 67  1  0
 35 68  1  0
 36 69  1  0
 36 70  1  0
 36 71  1  0
 37 72  1  0
 37 73  1  0
 37 74  1  0
 38 75  1  0
 38 76  1  0
 38 77  1  0
 39 78  1  0
 39 79  1  0
 39 80  1  0
 40 81  1  0
 40 82  1  0
 41 83  1  0
 41 84  1  0
 42 85  1  0
 43 86  1  0
 44 87  1  0
 45 88  1  0
 46 89  1  0
 46 90  1  0
 47 91  1  0
 47 92  1  0
 48 93  1  0
 48 94  1  0
 49 95  1  0
 49 96  1  0
 50 97  1  0
 51 98  1  0
 52 99  1  0
 53100  1  0
M  CHG  3   1   1  17  -1  18  -1
M  END
$$$$
