
     RDKit          3D

100105  0  0  0  0  0  0  0  0999 V2000
    4.9647    1.7695    0.6137 N   0  0  0  0  0  0  0  0  0  0  0  0
    5.8530    2.2951   -0.3641 C   0  0  0  0  0  0  0  0  0  0  0  0
   -4.7882   -0.7827    0.3174 N   0  0  0  0  0  0  0  0  0  0  0  0
   -6.0339   -1.8266    2.1499 C   0  0  0  0  0  0  0  0  0  0  0  0
   -4.7800   -1.0706    1.7304 C   0  0  0  0  0  0  0  0  0  0  0  0
    4.1672    0.9320    0.0111 C   0  0  0  0  0  0  0  0  0  0  0  0
    4.4435    0.8015   -1.4770 C   0  0  0  0  0  0  0  0  0  0  0  0
    5.5956    1.7736   -1.6145 C   0  0  0  0  0  0  0  0  0  0  0  0
   -6.7805   -1.9073    0.8254 C   0  0  0  0  0  0  0  0  0  0  0  0
   -6.0207   -1.3093   -0.1705 C   0  0  0  0  0  0  0  0  0  0  0  0
   -1.7653    1.8174   -3.3543 S   0  0  0  0  0  0  0  0  0  0  0  0
    6.5643   -2.8392    3.3917 S   0  0  0  0  0  0  0  0  0  0  0  0
    6.3695    2.1650   -2.7316 C   0  0  0  0  0  0  0  0  0  0  0  0
   -8.0387   -2.4896    0.5093 C   0  0  0  0  0  0  0  0  0  0  0  0
    6.8796    3.2153   -0.1458 C   0  0  0  0  0  0  0  0  0  0  0  0
   -6.4499   -1.2847   -1.5024 C   0  0  0  0  0  0  0  0  0  0  0  0
   -0.8003    0.8182   -2.4065 O   0  0  0  0  0  0  0  0  0  0  0  0
    5.0371   -3.1154    4.0323 O   0  0  0  0  0  0  0  0  0  0  0  0
   -3.7891   -0.7684    2.6009 C   0  0  0  0  0  0  0  0  0  0  0  0
    3.1171    0.1543    0.6970 C   0  0  0  0  0  0  0  0  0  0  0  0
   -1.2722    1.7726   -4.7727 O   0  0  0  0  0  0  0  0  0  0  0  0
   -1.6777    3.2302   -2.8471 O   0  0  0  0  0  0  0  0  0  0  0  0
    7.5811   -3.5834    4.2064 O   0  0  0  0  0  0  0  0  0  0  0  0
    6.6109   -3.3312    1.9741 O   0  0  0  0  0  0  0  0  0  0  0  0
   -2.6477    0.0973    2.2973 C   0  0  0  0  0  0  0  0  0  0  0  0
    2.0233    0.7455    1.1784 C   0  0  0  0  0  0  0  0  0  0  0  0
    0.9321   -0.0539    1.7561 C   0  0  0  0  0  0  0  0  0  0  0  0
   -0.2667    0.4864    1.9799 C   0  0  0  0  0  0  0  0  0  0  0  0
   -1.3972   -0.3433    2.4275 C   0  0  0  0  0  0  0  0  0  0  0  0
    5.0457    2.0274    2.0603 C   0  0  0  0  0  0  0  0  0  0  0  0
   -8.4816   -2.4476   -0.8461 C   0  0  0  0  0  0  0  0  0  0  0  0
    7.4182    3.1068   -2.5211 C   0  0  0  0  0  0  0  0  0  0  0  0
   -7.6794   -1.8524   -1.8347 C   0  0  0  0  0  0  0  0  0  0  0  0
    7.6636    3.6189   -1.2307 C   0  0  0  0  0  0  0  0  0  0  0  0
   -3.6546   -0.3887   -0.5366 C   0  0  0  0  0  0  0  0  0  0  0  0
   -5.6516   -3.2287    2.6701 C   0  0  0  0  0  0  0  0  0  0  0  0
   -6.8121   -0.9985    3.1965 C   0  0  0  0  0  0  0  0  0  0  0  0
    3.2042    1.2531   -2.2717 C   0  0  0  0  0  0  0  0  0  0  0  0
    4.8651   -0.6422   -1.8066 C   0  0  0  0  0  0  0  0  0  0  0  0
   -3.4632    1.2481   -3.3047 C   0  0  0  0  0  0  0  0  0  0  0  0
    6.9340   -1.0941    3.4366 C   0  0  0  0  0  0  0  0  0  0  0  0
   -8.8663   -3.1099    1.4678 C   0  0  0  0  0  0  0  0  0  0  0  0
    6.1525    1.6662   -4.0303 C   0  0  0  0  0  0  0  0  0  0  0  0
    8.2125    3.5186   -3.6021 C   0  0  0  0  0  0  0  0  0  0  0  0
   -9.7193   -3.0084   -1.2011 C   0  0  0  0  0  0  0  0  0  0  0  0
    6.1664    1.2028    2.7092 C   0  0  0  0  0  0  0  0  0  0  0  0
   -3.5941    1.1436   -0.7105 C   0  0  0  0  0  0  0  0  0  0  0  0
   -4.2026    1.6708   -2.0235 C   0  0  0  0  0  0  0  0  0  0  0  0
    5.8611   -0.3002    2.6906 C   0  0  0  0  0  0  0  0  0  0  0  0
    6.9565    2.0861   -5.0931 C   0  0  0  0  0  0  0  0  0  0  0  0
  -10.0944   -3.6642    1.0966 C   0  0  0  0  0  0  0  0  0  0  0  0
  -10.5206   -3.6115   -0.2317 C   0  0  0  0  0  0  0  0  0  0  0  0
    7.9829    3.0067   -4.8804 C   0  0  0  0  0  0  0  0  0  0  0  0
    7.0763    3.6132    0.8397 H   0  0  0  0  0  0  0  0  0  0  0  0
   -5.8472   -0.8487   -2.2831 H   0  0  0  0  0  0  0  0  0  0  0  0
   -3.8410   -1.1502    3.6137 H   0  0  0  0  0  0  0  0  0  0  0  0
    3.1942   -0.9252    0.6997 H   0  0  0  0  0  0  0  0  0  0  0  0
   -2.8348    1.0897    1.9162 H   0  0  0  0  0  0  0  0  0  0  0  0
    1.9132    1.8217    1.0939 H   0  0  0  0  0  0  0  0  0  0  0  0
    1.0910   -1.1129    1.9369 H   0  0  0  0  0  0  0  0  0  0  0  0
   -0.4371    1.5338    1.7485 H   0  0  0  0  0  0  0  0  0  0  0  0
   -1.2167   -1.3559    2.7734 H   0  0  0  0  0  0  0  0  0  0  0  0
    5.2509    3.1058    2.2292 H   0  0  0  0  0  0  0  0  0  0  0  0
    4.0801    1.8174    2.5672 H   0  0  0  0  0  0  0  0  0  0  0  0
   -8.0043   -1.8293   -2.8681 H   0  0  0  0  0  0  0  0  0  0  0  0
    8.4617    4.3318   -1.0634 H   0  0  0  0  0  0  0  0  0  0  0  0
   -3.7086   -0.9154   -1.5087 H   0  0  0  0  0  0  0  0  0  0  0  0
   -2.7038   -0.7574   -0.1015 H   0  0  0  0  0  0  0  0  0  0  0  0
   -5.0336   -3.7650    1.9157 H   0  0  0  0  0  0  0  0  0  0  0  0
   -6.5395   -3.8502    2.8883 H   0  0  0  0  0  0  0  0  0  0  0  0
   -5.0637   -3.1520    3.6100 H   0  0  0  0  0  0  0  0  0  0  0  0
   -7.1148   -0.0188    2.7653 H   0  0  0  0  0  0  0  0  0  0  0  0
   -7.7212   -1.5171    3.5513 H   0  0  0  0  0  0  0  0  0  0  0  0
   -6.1833   -0.8041    4.0920 H   0  0  0  0  0  0  0  0  0  0  0  0
    2.3326    0.6104   -2.0246 H   0  0  0  0  0  0  0  0  0  0  0  0
    3.3651    1.1864   -3.3646 H   0  0  0  0  0  0  0  0  0  0  0  0
    2.9432    2.3045   -2.0188 H   0  0  0  0  0  0  0  0  0  0  0  0
    5.1237   -0.7625   -2.8756 H   0  0  0  0  0  0  0  0  0  0  0  0
    5.7502   -0.9353   -1.1997 H   0  0  0  0  0  0  0  0  0  0  0  0
    4.0362   -1.3482   -1.5841 H   0  0  0  0  0  0  0  0  0  0  0  0
   -3.4855    0.1476   -3.4456 H   0  0  0  0  0  0  0  0  0  0  0  0
   -3.9971    1.6948   -4.1728 H   0  0  0  0  0  0  0  0  0  0  0  0
    6.9784   -0.7642    4.4959 H   0  0  0  0  0  0  0  0  0  0  0  0
    7.9254   -0.9266    2.9642 H   0  0  0  0  0  0  0  0  0  0  0  0
   -8.5880   -3.1845    2.5037 H   0  0  0  0  0  0  0  0  0  0  0  0
    5.3708    0.9594   -4.2461 H   0  0  0  0  0  0  0  0  0  0  0  0
    9.0133    4.2334   -3.4582 H   0  0  0  0  0  0  0  0  0  0  0  0
  -10.0661   -2.9833   -2.2287 H   0  0  0  0  0  0  0  0  0  0  0  0
    7.1274    1.3970    2.1847 H   0  0  0  0  0  0  0  0  0  0  0  0
    6.2779    1.5385    3.7634 H   0  0  0  0  0  0  0  0  0  0  0  0
   -4.1441    1.6306    0.1252 H   0  0  0  0  0  0  0  0  0  0  0  0
   -2.5404    1.4834   -0.6236 H   0  0  0  0  0  0  0  0  0  0  0  0
   -5.2627    1.3531   -2.0914 H   0  0  0  0  0  0  0  0  0  0  0  0
   -4.2139    2.7818   -1.9792 H   0  0  0  0  0  0  0  0  0  0  0  0
    4.8748   -0.4802    3.1701 H   0  0  0  0  0  0  0  0  0  0  0  0
    5.8181   -0.6582    1.6396 H   0  0  0  0  0  0  0  0  0  0  0  0
    6.7830    1.6953   -6.0877 H   0  0  0  0  0  0  0  0  0  0  0  0
  -10.7220   -4.1381    1.8423 H   0  0  0  0  0  0  0  0  0  0  0  0
  -11.4739   -4.0428   -0.5100 H   0  0  0  0  0  0  0  0  0  0  0  0
    8.6017    3.3258   -5.7092 H   0  0  0  0  0  0  0  0  0  0  0  0
  2  1  1  0
  3  5  1  0
  4  5  1  0
  5 19  2  0
  6  1  2  0
  7  6  1  0
  8  2  2  0
  9  4  1  0
 10  3  1  0
 11 40  1  0
 12 41  1  0
 13  8  1  0
 14  9  2  0
 15  2  1  0
 16 10  2  0
 17 11  1  0
 18 12  1  0
 19 25  1  0
 20  6  1  0
 21 11  2  0
 22 11  2  0
 23 12  2  0
 24 12  2  0
 25 29  2  0
 26 20  2  0
 27 26  1  0
 28 27  2  0
 29 28  1  0
 30  1  1  0
 31 14  1  0
 32 34  1  0
 33 16  1  0
 34 15  2  0
 35  3  1  0
 36  4  1  0
 37  4  1  0
 38  7  1  0
 39  7  1  0
 40 48  1  0
 41 49  1  0
 42 14  1  0
 43 13  2  0
 44 32  2  0
 45 31  1  0
 46 30  1  0
 47 35  1  0
 48 47  1  0
 49 46  1  0
 50 43  1  0
 51 42  2  0
 52 51  1  0
 53 44  1  0
  7  8  1  0
 13 32  1  0
 53 50  2  0
 10  9  1  0
 31 33  2  0
 52 45  2  0
 15 54  1  0
 16 55  1  0
 19 56  1  0
 20 57  1  0
 25 58  1  0
 26 59  1  0
 27 60  1  0
 28 61  1  0
 29 62  1  0
 30 63  1  0
 30 64  1  0
 33 65  1  0
 34 66  1  0
 35 67  1  0
 35 68  1  0
 36 69  1  0
 36 70  1  0
 36 71  1  0
 37 72  1  0
 37 73  1  0
 37 74  1  0
 38 75  1  0
 38 76  1  0
 38 77  1  0
 39 78  1  0
 39 79  1  0
 39 80  1  0
 40 81  1  0
 40 82  1  0
 41 83  1  0
 41 84  1  0
 42 85  1  0
 43 86  1  0
 44 87  1  0
 45 88  1  0
 46 89  1  0
 46 90  1  0
 47 91  1  0
 47 92  1  0
 48 93  1  0
 48 94  1  0
 49 95  1  0
 49 96  1  0
 50 97  1  0
 51 98  1  0
 52 99  1  0
 53100  1  0
M  CHG  3   1   1  17  -1  18  -1
M  END
$$$$
