
     RDKit          3D

 22 18  0  0  0  0  0  0  0  0999 V2000
    0.0000    0.0000    0.0000 Al  0  0  0  0  0 15  0  0  0  0  0  0
    0.8162    0.0644   -0.1851 C   0  0  0  0  0  0  0  0  0  0  0  0
    1.5885   -1.0762    0.0157 O   0  0  0  0  0  0  0  0  0  0  0  0
    1.3079    1.1425   -0.6113 O   0  0  0  0  0  0  0  0  0  0  0  0
   -0.6407   -0.0229    0.1235 C   0  0  0  0  0  0  0  0  0  0  0  0
    0.7974    0.0766   -0.0499 C   0  0  0  0  0  0  0  0  0  0  0  0
    1.5795   -1.0269    0.1469 O   0  0  0  0  0  0  0  0  0  0  0  0
    1.3701    1.1799   -0.2858 O   0  0  0  0  0  0  0  0  0  0  0  0
   -0.6757   -0.0640    0.0205 C   0  0  0  0  0  0  0  0  0  0  0  0
    0.8308    0.0433   -0.1110 C   0  0  0  0  0  0  0  0  0  0  0  0
    1.4972    1.2691    0.0135 O   0  0  0  0  0  0  0  0  0  0  0  0
    1.4444   -1.0214   -0.3779 O   0  0  0  0  0  0  0  0  0  0  0  0
   -0.6562   -0.0522    0.0702 C   0  0  0  0  0  0  0  0  0  0  0  0
   -1.1324    0.9566   -0.0907 H   0  0  0  0  0  0  0  0  0  0  0  0
   -0.7971   -0.2188    1.2083 H   0  0  0  0  0  0  0  0  0  0  0  0
   -1.1424   -0.8455   -0.4603 H   0  0  0  0  0  0  0  0  0  0  0  0
   -0.9789    0.1830    1.0573 H   0  0  0  0  0  0  0  0  0  0  0  0
   -1.1081    0.7342   -0.6276 H   0  0  0  0  0  0  0  0  0  0  0  0
   -0.9843   -1.0829   -0.2614 H   0  0  0  0  0  0  0  0  0  0  0  0
   -1.0616    0.8038    0.6390 H   0  0  0  0  0  0  0  0  0  0  0  0
   -1.1708   -0.0943   -0.9202 H   0  0  0  0  0  0  0  0  0  0  0  0
   -0.8839   -0.9483    0.6864 H   0  0  0  0  0  0  0  0  0  0  0  0
  3  2  1  0
  4  2  2  0
  5  2  1  0
  7  6  1  0
  8  6  2  0
  9  6  1  0
 11 10  1  0
 12 10  2  0
 13 10  1  0
  5 14  1  0
  5 15  1  0
  5 16  1  0
  9 17  1  0
  9 18  1  0
  9 19  1  0
 13 20  1  0
 13 21  1  0
 13 22  1  0
M  CHG  4   1   3   3  -1   7  -1  11  -1
M  END
$$$$
