
     RDKit          3D

 22 18  0  0  0  0  0  0  0  0999 V2000
    0.0000    0.0000    0.0000 Al  0  0  0  0  0 15  0  0  0  0  0  0
    0.8153    0.1417    0.0854 C   0  0  0  0  0  0  0  0  0  0  0  0
    1.3441    1.4232    0.1744 O   0  0  0  0  0  0  0  0  0  0  0  0
    1.5655   -0.8919    0.1385 O   0  0  0  0  0  0  0  0  0  0  0  0
   -0.6358   -0.1227   -0.0753 C   0  0  0  0  0  0  0  0  0  0  0  0
    0.8072    0.0154   -0.0452 C   0  0  0  0  0  0  0  0  0  0  0  0
    1.5585   -1.1342   -0.0407 O   0  0  0  0  0  0  0  0  0  0  0  0
    1.3956    1.1213   -0.1355 O   0  0  0  0  0  0  0  0  0  0  0  0
   -0.6812   -0.0030    0.0531 C   0  0  0  0  0  0  0  0  0  0  0  0
    0.8157    0.0524    0.0358 C   0  0  0  0  0  0  0  0  0  0  0  0
    1.5930   -1.1011    0.0344 O   0  0  0  0  0  0  0  0  0  0  0  0
    1.4266    1.1571    0.1066 O   0  0  0  0  0  0  0  0  0  0  0  0
   -0.6492   -0.0064   -0.0414 C   0  0  0  0  0  0  0  0  0  0  0  0
   -1.1796    0.7814   -0.4486 H   0  0  0  0  0  0  0  0  0  0  0  0
   -0.8075   -0.9815   -0.7772 H   0  0  0  0  0  0  0  0  0  0  0  0
   -1.1019   -0.3503    0.9028 H   0  0  0  0  0  0  0  0  0  0  0  0
   -0.9649    0.2864    1.0755 H   0  0  0  0  0  0  0  0  0  0  0  0
   -1.0896   -1.0118   -0.1925 H   0  0  0  0  0  0  0  0  0  0  0  0
   -1.0256    0.7260   -0.7147 H   0  0  0  0  0  0  0  0  0  0  0  0
   -1.1233   -0.2138    0.9395 H   0  0  0  0  0  0  0  0  0  0  0  0
   -0.9823   -0.8482   -0.7074 H   0  0  0  0  0  0  0  0  0  0  0  0
   -1.0805    0.9600   -0.3677 H   0  0  0  0  0  0  0  0  0  0  0  0
  3  2  1  0
  4  2  2  0
  5  2  1  0
  7  6  1  0
  8  6  2  0
  9  6  1  0
 11 10  1  0
 12 10  2  0
 13 10  1  0
  5 14  1  0
  5 15  1  0
  5 16  1  0
  9 17  1  0
  9 18  1  0
  9 19  1  0
 13 20  1  0
 13 21  1  0
 13 22  1  0
M  CHG  4   1   3   3  -1   7  -1  11  -1
M  END
$$$$
