
     RDKit          3D

 22 18  0  0  0  0  0  0  0  0999 V2000
    0.0000    0.0000    0.0000 Al  0  0  0  0  0 15  0  0  0  0  0  0
    0.8228    0.0319    0.0568 C   0  0  0  0  0  0  0  0  0  0  0  0
    1.4040    1.2824   -0.0551 O   0  0  0  0  0  0  0  0  0  0  0  0
    1.4813   -1.0132    0.2533 O   0  0  0  0  0  0  0  0  0  0  0  0
   -0.6731   -0.0457   -0.0677 C   0  0  0  0  0  0  0  0  0  0  0  0
    0.8115    0.0524   -0.1756 C   0  0  0  0  0  0  0  0  0  0  0  0
    1.4895   -1.1603   -0.0485 O   0  0  0  0  0  0  0  0  0  0  0  0
    1.3825    1.1218   -0.5169 O   0  0  0  0  0  0  0  0  0  0  0  0
   -0.6576    0.0213    0.1193 C   0  0  0  0  0  0  0  0  0  0  0  0
    0.8264   -0.0277    0.0123 C   0  0  0  0  0  0  0  0  0  0  0  0
    1.4708    1.2015   -0.0600 O   0  0  0  0  0  0  0  0  0  0  0  0
    1.4549   -1.1025    0.0788 O   0  0  0  0  0  0  0  0  0  0  0  0
   -0.6438   -0.0327    0.0085 C   0  0  0  0  0  0  0  0  0  0  0  0
   -1.1435    0.9334    0.0153 H   0  0  0  0  0  0  0  0  0  0  0  0
   -0.8818   -0.5443   -1.0192 H   0  0  0  0  0  0  0  0  0  0  0  0
   -1.0097   -0.6445    0.8166 H   0  0  0  0  0  0  0  0  0  0  0  0
   -1.1575    0.9692   -0.1732 H   0  0  0  0  0  0  0  0  0  0  0  0
   -0.7250   -0.1616    1.2162 H   0  0  0  0  0  0  0  0  0  0  0  0
   -1.1434   -0.8428   -0.4212 H   0  0  0  0  0  0  0  0  0  0  0  0
   -1.0487    0.5010    0.9105 H   0  0  0  0  0  0  0  0  0  0  0  0
   -0.9611    0.4849   -0.9302 H   0  0  0  0  0  0  0  0  0  0  0  0
   -1.0985   -1.0244   -0.0199 H   0  0  0  0  0  0  0  0  0  0  0  0
  3  2  1  0
  4  2  2  0
  5  2  1  0
  7  6  1  0
  8  6  2  0
  9  6  1  0
 11 10  1  0
 12 10  2  0
 13 10  1  0
  5 14  1  0
  5 15  1  0
  5 16  1  0
  9 17  1  0
  9 18  1  0
  9 19  1  0
 13 20  1  0
 13 21  1  0
 13 22  1  0
M  CHG  4   1   3   3  -1   7  -1  11  -1
M  END
$$$$
