
     RDKit          3D

 13  9  0  0  0  0  0  0  0  0999 V2000
    0.0000    0.0000    0.0000 Al  0  0  0  0  0 15  0  0  0  0  0  0
   -0.0217    0.0300    0.0004 C   0  0  0  0  0  0  0  0  0  0  0  0
   -1.0989   -0.8369   -0.0246 O   0  0  0  0  0  0  0  0  0  0  0  0
   -0.2451    1.2700    0.0235 O   0  0  0  0  0  0  0  0  0  0  0  0
    1.3656   -0.4631    0.0006 C   0  0  0  0  0  0  0  0  0  0  0  0
   -0.0116    0.0356    0.0000 C   0  0  0  0  0  0  0  0  0  0  0  0
   -1.0358   -0.9102   -0.0002 O   0  0  0  0  0  0  0  0  0  0  0  0
   -0.3587    1.2422    0.0003 O   0  0  0  0  0  0  0  0  0  0  0  0
    1.4060   -0.3676   -0.0001 C   0  0  0  0  0  0  0  0  0  0  0  0
   -0.0235    0.0369   -0.0008 C   0  0  0  0  0  0  0  0  0  0  0  0
   -0.9794   -0.9769   -0.0338 O   0  0  0  0  0  0  0  0  0  0  0  0
   -0.4216    1.2352   -0.0149 O   0  0  0  0  0  0  0  0  0  0  0  0
    1.4245   -0.2952    0.0495 C   0  0  0  0  0  0  0  0  0  0  0  0
  3  2  1  0
  4  2  2  0
  5  2  1  0
  7  6  1  0
  8  6  2  0
  9  6  1  0
 11 10  1  0
 12 10  2  0
 13 10  1  0
M  CHG  4   1   3   3  -1   7  -1  11  -1
M  END
