
     RDKit          3D

 22 18  0  0  0  0  0  0  0  0999 V2000
    0.0000    0.0000    0.0000 Al  0  0  0  0  0 15  0  0  0  0  0  0
    0.8244    0.0410    0.0141 C   0  0  0  0  0  0  0  0  0  0  0  0
    1.6275   -1.0729    0.0048 O   0  0  0  0  0  0  0  0  0  0  0  0
    1.3764    1.1685    0.0455 O   0  0  0  0  0  0  0  0  0  0  0  0
   -0.6399   -0.0186   -0.0108 C   0  0  0  0  0  0  0  0  0  0  0  0
    0.8088    0.1806    0.1508 C   0  0  0  0  0  0  0  0  0  0  0  0
    1.6090   -0.9658    0.3177 O   0  0  0  0  0  0  0  0  0  0  0  0
    1.2930    1.3415    0.2168 O   0  0  0  0  0  0  0  0  0  0  0  0
   -0.6435   -0.0712   -0.1082 C   0  0  0  0  0  0  0  0  0  0  0  0
    0.8201    0.0729    0.0117 C   0  0  0  0  0  0  0  0  0  0  0  0
    1.6307   -1.0522    0.0136 O   0  0  0  0  0  0  0  0  0  0  0  0
    1.4005    1.1968    0.0267 O   0  0  0  0  0  0  0  0  0  0  0  0
   -0.6630   -0.0480   -0.0070 C   0  0  0  0  0  0  0  0  0  0  0  0
   -1.0690    0.5851   -0.8509 H   0  0  0  0  0  0  0  0  0  0  0  0
   -1.0860    0.3387    0.9542 H   0  0  0  0  0  0  0  0  0  0  0  0
   -1.0335   -1.0418   -0.1570 H   0  0  0  0  0  0  0  0  0  0  0  0
   -1.2267   -0.1918    0.8146 H   0  0  0  0  0  0  0  0  0  0  0  0
   -1.0747    0.7492   -0.7256 H   0  0  0  0  0  0  0  0  0  0  0  0
   -0.7659   -1.0425   -0.6660 H   0  0  0  0  0  0  0  0  0  0  0  0
   -1.0616   -0.2435    1.0295 H   0  0  0  0  0  0  0  0  0  0  0  0
   -0.9967   -0.8255   -0.7335 H   0  0  0  0  0  0  0  0  0  0  0  0
   -1.1301    0.8995   -0.3410 H   0  0  0  0  0  0  0  0  0  0  0  0
  3  2  1  0
  4  2  2  0
  5  2  1  0
  7  6  1  0
  8  6  2  0
  9  6  1  0
 11 10  1  0
 12 10  2  0
 13 10  1  0
  5 14  1  0
  5 15  1  0
  5 16  1  0
  9 17  1  0
  9 18  1  0
  9 19  1  0
 13 20  1  0
 13 21  1  0
 13 22  1  0
M  CHG  4   1   3   3  -1   7  -1  11  -1
M  END
$$$$
