
     RDKit          3D

 22 18  0  0  0  0  0  0  0  0999 V2000
    0.0000    0.0000    0.0000 Al  0  0  0  0  0 15  0  0  0  0  0  0
    0.7704    0.2207   -0.1177 C   0  0  0  0  0  0  0  0  0  0  0  0
    1.7471   -0.7209    0.1793 O   0  0  0  0  0  0  0  0  0  0  0  0
    1.0981    1.3575   -0.5508 O   0  0  0  0  0  0  0  0  0  0  0  0
   -0.6766   -0.1480    0.0890 C   0  0  0  0  0  0  0  0  0  0  0  0
    0.8216    0.0295    0.1324 C   0  0  0  0  0  0  0  0  0  0  0  0
    1.5821   -1.0868   -0.2057 O   0  0  0  0  0  0  0  0  0  0  0  0
    1.3708    1.0436    0.6378 O   0  0  0  0  0  0  0  0  0  0  0  0
   -0.6534    0.0104   -0.1113 C   0  0  0  0  0  0  0  0  0  0  0  0
    0.8238   -0.1415    0.0000 C   0  0  0  0  0  0  0  0  0  0  0  0
    1.5882    1.0234   -0.1642 O   0  0  0  0  0  0  0  0  0  0  0  0
    1.3441   -1.2611    0.1353 O   0  0  0  0  0  0  0  0  0  0  0  0
   -0.6514    0.0383    0.0033 C   0  0  0  0  0  0  0  0  0  0  0  0
   -1.3250    0.7037   -0.1228 H   0  0  0  0  0  0  0  0  0  0  0  0
   -0.8457   -0.9698   -0.6264 H   0  0  0  0  0  0  0  0  0  0  0  0
   -0.7683   -0.4432    1.1494 H   0  0  0  0  0  0  0  0  0  0  0  0
   -1.1955   -0.1525    0.8268 H   0  0  0  0  0  0  0  0  0  0  0  0
   -0.9132   -0.8313   -0.7777 H   0  0  0  0  0  0  0  0  0  0  0  0
   -1.0125    0.9870   -0.5023 H   0  0  0  0  0  0  0  0  0  0  0  0
   -1.1992   -0.9190   -0.1688 H   0  0  0  0  0  0  0  0  0  0  0  0
   -0.9359    0.4776    0.9621 H   0  0  0  0  0  0  0  0  0  0  0  0
   -0.9695    0.7823   -0.7677 H   0  0  0  0  0  0  0  0  0  0  0  0
  3  2  1  0
  4  2  2  0
  5  2  1  0
  7  6  1  0
  8  6  2  0
  9  6  1  0
 11 10  1  0
 12 10  2  0
 13 10  1  0
  5 14  1  0
  5 15  1  0
  5 16  1  0
  9 17  1  0
  9 18  1  0
  9 19  1  0
 13 20  1  0
 13 21  1  0
 13 22  1  0
M  CHG  4   1   3   3  -1   7  -1  11  -1
M  END
$$$$
