
     RDKit          3D

 42 44  0  0  0  0  0  0  0  0999 V2000
   -0.9280   -0.5244   -0.6349 C   0  0  1  0  0  0  0  0  0  0  0  0
   -1.8325   -1.2682    0.3204 C   0  0  0  0  0  0  0  0  0  0  0  0
   -2.1084    0.1695    0.0106 C   0  0  2  0  0  0  0  0  0  0  0  0
    0.4790   -0.1615   -0.2219 C   0  0  0  0  0  0  0  0  0  0  0  0
   -3.2759    0.5013   -0.8055 N   0  0  0  0  0  0  0  0  0  0  0  0
    1.3763   -1.1328    0.2525 C   0  0  0  0  0  0  0  0  0  0  0  0
    0.9527    1.1569   -0.3287 C   0  0  0  0  0  0  0  0  0  0  0  0
    2.2576    1.4957    0.0391 C   0  0  0  0  0  0  0  0  0  0  0  0
    2.6824   -0.8009    0.6225 C   0  0  0  0  0  0  0  0  0  0  0  0
    3.1220    0.5154    0.5174 C   0  0  0  0  0  0  0  0  0  0  0  0
   -0.9347   -0.7227   -0.3030 C   0  0  2  0  0  0  0  0  0  0  0  0
   -2.0883    0.0704   -0.8737 C   0  0  0  0  0  0  0  0  0  0  0  0
   -2.0569   -0.2372    0.5908 C   0  0  1  0  0  0  0  0  0  0  0  0
    0.4368   -0.0972   -0.2023 C   0  0  0  0  0  0  0  0  0  0  0  0
   -3.0180   -1.1911    1.1443 N   0  0  0  0  0  0  0  0  0  0  0  0
    1.1363   -0.0629    1.0156 C   0  0  0  0  0  0  0  0  0  0  0  0
    1.0774    0.4432   -1.3299 C   0  0  0  0  0  0  0  0  0  0  0  0
    2.3527    1.0080   -1.2437 C   0  0  0  0  0  0  0  0  0  0  0  0
    2.4119    0.5003    1.1085 C   0  0  0  0  0  0  0  0  0  0  0  0
    3.0194    1.0373   -0.0225 C   0  0  0  0  0  0  0  0  0  0  0  0
   -1.0394   -0.7859   -1.6857 H   0  0  0  0  0  0  0  0  0  0  0  0
   -1.4691   -1.5042    1.3137 H   0  0  0  0  0  0  0  0  0  0  0  0
   -2.4876   -2.0235   -0.0983 H   0  0  0  0  0  0  0  0  0  0  0  0
   -1.8963    0.8799    0.8076 H   0  0  0  0  0  0  0  0  0  0  0  0
   -4.1094    0.5788   -0.2233 H   0  0  0  0  0  0  0  0  0  0  0  0
   -3.1558    1.4110   -1.2500 H   0  0  0  0  0  0  0  0  0  0  0  0
    1.0510   -2.1679    0.3332 H   0  0  0  0  0  0  0  0  0  0  0  0
    0.2924    1.9335   -0.7088 H   0  0  0  0  0  0  0  0  0  0  0  0
    2.5971    2.5239   -0.0518 H   0  0  0  0  0  0  0  0  0  0  0  0
    3.3544   -1.5723    0.9890 H   0  0  0  0  0  0  0  0  0  0  0  0
    4.1376    0.7756    0.8029 H   0  0  0  0  0  0  0  0  0  0  0  0
   -0.9278   -1.7832   -0.5460 H   0  0  0  0  0  0  0  0  0  0  0  0
   -1.9257    1.1019   -1.1661 H   0  0  0  0  0  0  0  0  0  0  0  0
   -2.8016   -0.4508   -1.5009 H   0  0  0  0  0  0  0  0  0  0  0  0
   -1.8491    0.6073    1.2458 H   0  0  0  0  0  0  0  0  0  0  0  0
   -2.6465   -1.6219    1.9905 H   0  0  0  0  0  0  0  0  0  0  0  0
   -3.2012   -1.9570    0.4974 H   0  0  0  0  0  0  0  0  0  0  0  0
    0.6787   -0.4825    1.9090 H   0  0  0  0  0  0  0  0  0  0  0  0
    0.5727    0.4238   -2.2937 H   0  0  0  0  0  0  0  0  0  0  0  0
    2.8234    1.4220   -2.1314 H   0  0  0  0  0  0  0  0  0  0  0  0
    2.9291    0.5167    2.0642 H   0  0  0  0  0  0  0  0  0  0  0  0
    4.0113    1.4756    0.0471 H   0  0  0  0  0  0  0  0  0  0  0  0
  2  1  1  0
  3  1  1  0
  1  4  1  0
  3  5  1  0
  6  4  2  0
  7  4  1  0
  8  7  2  0
  9  6  1  0
 10  9  2  0
  3  2  1  0
  8 10  1  0
 12 11  1  0
 13 11  1  0
 11 14  1  0
 13 15  1  0
 16 14  2  0
 17 14  1  0
 18 17  2  0
 19 16  1  0
 20 19  2  0
 13 12  1  0
 18 20  1  0
  1 21  1  6
  2 22  1  0
  2 23  1  0
  3 24  1  1
  5 25  1  0
  5 26  1  0
  6 27  1  0
  7 28  1  0
  8 29  1  0
  9 30  1  0
 10 31  1  0
 11 32  1  6
 12 33  1  0
 12 34  1  0
 13 35  1  1
 15 36  1  0
 15 37  1  0
 16 38  1  0
 17 39  1  0
 18 40  1  0
 19 41  1  0
 20 42  1  0
M  END
$$$$
