
     RDKit          3D

 42 44  0  0  0  0  0  0  0  0999 V2000
   -0.9750    0.1639    0.7155 C   0  0  1  0  0  0  0  0  0  0  0  0
   -1.9949    1.0715    0.0660 C   0  0  0  0  0  0  0  0  0  0  0  0
   -2.1099   -0.4109   -0.1063 C   0  0  2  0  0  0  0  0  0  0  0  0
    0.4398    0.1150    0.1879 C   0  0  0  0  0  0  0  0  0  0  0  0
   -3.2032   -1.1260    0.5521 N   0  0  0  0  0  0  0  0  0  0  0  0
    1.0413   -1.1009   -0.1759 C   0  0  0  0  0  0  0  0  0  0  0  0
    1.2179    1.2799    0.0733 C   0  0  0  0  0  0  0  0  0  0  0  0
    2.5318    1.2358   -0.4007 C   0  0  0  0  0  0  0  0  0  0  0  0
    2.3548   -1.1520   -0.6504 C   0  0  0  0  0  0  0  0  0  0  0  0
    3.0995    0.0186   -0.7640 C   0  0  0  0  0  0  0  0  0  0  0  0
   -0.9509    0.0136   -0.8389 C   0  0  2  0  0  0  0  0  0  0  0  0
   -1.9968    0.9945   -0.3609 C   0  0  0  0  0  0  0  0  0  0  0  0
   -2.0673   -0.4335    0.0808 C   0  0  1  0  0  0  0  0  0  0  0  0
    0.4651    0.0987   -0.3192 C   0  0  0  0  0  0  0  0  0  0  0  0
   -3.1339   -1.2822   -0.4504 N   0  0  0  0  0  0  0  0  0  0  0  0
    1.1079   -1.0228    0.2315 C   0  0  0  0  0  0  0  0  0  0  0  0
    1.2035    1.2913   -0.3982 C   0  0  0  0  0  0  0  0  0  0  0  0
    2.5180    1.3676    0.0704 C   0  0  0  0  0  0  0  0  0  0  0  0
    2.4221   -0.9533    0.7019 C   0  0  0  0  0  0  0  0  0  0  0  0
    3.1264    0.2443    0.6229 C   0  0  0  0  0  0  0  0  0  0  0  0
   -1.0550    0.0640    1.7960 H   0  0  0  0  0  0  0  0  0  0  0  0
   -2.7053    1.5786    0.7080 H   0  0  0  0  0  0  0  0  0  0  0  0
   -1.7074    1.6501   -0.8051 H   0  0  0  0  0  0  0  0  0  0  0  0
   -1.8710   -0.7898   -1.0986 H   0  0  0  0  0  0  0  0  0  0  0  0
   -2.9491   -2.1009    0.7083 H   0  0  0  0  0  0  0  0  0  0  0  0
   -3.4051   -0.7384    1.4727 H   0  0  0  0  0  0  0  0  0  0  0  0
    0.4753   -2.0263   -0.0896 H   0  0  0  0  0  0  0  0  0  0  0  0
    0.7914    2.2395    0.3574 H   0  0  0  0  0  0  0  0  0  0  0  0
    3.1093    2.1529   -0.4839 H   0  0  0  0  0  0  0  0  0  0  0  0
    2.7938   -2.1063   -0.9298 H   0  0  0  0  0  0  0  0  0  0  0  0
    4.1209   -0.0183   -1.1330 H   0  0  0  0  0  0  0  0  0  0  0  0
   -1.0344   -0.2869   -1.8816 H   0  0  0  0  0  0  0  0  0  0  0  0
   -2.7191    1.3477   -1.0882 H   0  0  0  0  0  0  0  0  0  0  0  0
   -1.7231    1.7358    0.3807 H   0  0  0  0  0  0  0  0  0  0  0  0
   -1.8107   -0.6265    1.1209 H   0  0  0  0  0  0  0  0  0  0  0  0
   -2.8616   -2.2642   -0.4122 H   0  0  0  0  0  0  0  0  0  0  0  0
   -3.9730   -1.2008    0.1227 H   0  0  0  0  0  0  0  0  0  0  0  0
    0.5745   -1.9689    0.2924 H   0  0  0  0  0  0  0  0  0  0  0  0
    0.7459    2.1761   -0.8353 H   0  0  0  0  0  0  0  0  0  0  0  0
    3.0648    2.3039   -0.0009 H   0  0  0  0  0  0  0  0  0  0  0  0
    2.8937   -1.8354    1.1262 H   0  0  0  0  0  0  0  0  0  0  0  0
    4.1488    0.3010    0.9864 H   0  0  0  0  0  0  0  0  0  0  0  0
  2  1  1  0
  3  1  1  0
  1  4  1  0
  3  5  1  0
  6  4  2  0
  7  4  1  0
  8  7  2  0
  9  6  1  0
 10  9  2  0
  3  2  1  0
  8 10  1  0
 12 11  1  0
 13 11  1  0
 11 14  1  0
 13 15  1  0
 16 14  2  0
 17 14  1  0
 18 17  2  0
 19 16  1  0
 20 19  2  0
 13 12  1  0
 18 20  1  0
  1 21  1  1
  2 22  1  0
  2 23  1  0
  3 24  1  6
  5 25  1  0
  5 26  1  0
  6 27  1  0
  7 28  1  0
  8 29  1  0
  9 30  1  0
 10 31  1  0
 11 32  1  6
 12 33  1  0
 12 34  1  0
 13 35  1  1
 15 36  1  0
 15 37  1  0
 16 38  1  0
 17 39  1  0
 18 40  1  0
 19 41  1  0
 20 42  1  0
M  END
$$$$
