
     RDKit          3D

 42 44  0  0  0  0  0  0  0  0999 V2000
    0.9620   -0.6998   -0.3510 C   0  0  1  0  0  0  0  0  0  0  0  0
    1.8174    0.0749   -1.3266 C   0  0  0  0  0  0  0  0  0  0  0  0
    2.1039    0.1643    0.1393 C   0  0  2  0  0  0  0  0  0  0  0  0
   -0.4662   -0.2807   -0.0933 C   0  0  0  0  0  0  0  0  0  0  0  0
    3.3125   -0.4746    0.6593 N   0  0  0  0  0  0  0  0  0  0  0  0
   -0.9400   -0.0733    1.2130 C   0  0  0  0  0  0  0  0  0  0  0  0
   -1.3827   -0.1171   -1.1452 C   0  0  0  0  0  0  0  0  0  0  0  0
   -2.7076    0.2581   -0.9072 C   0  0  0  0  0  0  0  0  0  0  0  0
   -2.2639    0.3011    1.4587 C   0  0  0  0  0  0  0  0  0  0  0  0
   -3.1471    0.4701    0.3964 C   0  0  0  0  0  0  0  0  0  0  0  0
    0.9495    0.7975   -0.0290 C   0  0  2  0  0  0  0  0  0  0  0  0
    2.0861    0.3043   -0.8946 C   0  0  0  0  0  0  0  0  0  0  0  0
    2.0127   -0.1184    0.5390 C   0  0  1  0  0  0  0  0  0  0  0  0
   -0.4525    0.2796   -0.2481 C   0  0  0  0  0  0  0  0  0  0  0  0
    2.9920    0.4214    1.4820 N   0  0  0  0  0  0  0  0  0  0  0  0
   -1.0661    0.3384   -1.5105 C   0  0  0  0  0  0  0  0  0  0  0  0
   -1.2068   -0.2515    0.8116 C   0  0  0  0  0  0  0  0  0  0  0  0
   -2.5085   -0.7215    0.6173 C   0  0  0  0  0  0  0  0  0  0  0  0
   -2.3672   -0.1301   -1.7123 C   0  0  0  0  0  0  0  0  0  0  0  0
   -3.0876   -0.6624   -0.6471 C   0  0  0  0  0  0  0  0  0  0  0  0
    1.1301   -1.7753   -0.3307 H   0  0  0  0  0  0  0  0  0  0  0  0
    2.4956   -0.4917   -1.9542 H   0  0  0  0  0  0  0  0  0  0  0  0
    1.4029    0.9523   -1.8089 H   0  0  0  0  0  0  0  0  0  0  0  0
    1.8472    1.1066    0.6201 H   0  0  0  0  0  0  0  0  0  0  0  0
    4.1151    0.1473    0.5645 H   0  0  0  0  0  0  0  0  0  0  0  0
    3.2176   -0.6632    1.6569 H   0  0  0  0  0  0  0  0  0  0  0  0
   -0.2646   -0.2095    2.0551 H   0  0  0  0  0  0  0  0  0  0  0  0
   -1.0577   -0.2877   -2.1693 H   0  0  0  0  0  0  0  0  0  0  0  0
   -3.3942    0.3815   -1.7405 H   0  0  0  0  0  0  0  0  0  0  0  0
   -2.6031    0.4568    2.4793 H   0  0  0  0  0  0  0  0  0  0  0  0
   -4.1772    0.7601    0.5844 H   0  0  0  0  0  0  0  0  0  0  0  0
    1.0061    1.8431    0.2691 H   0  0  0  0  0  0  0  0  0  0  0  0
    2.8427    1.0250   -1.1834 H   0  0  0  0  0  0  0  0  0  0  0  0
    1.8848   -0.4470   -1.6494 H   0  0  0  0  0  0  0  0  0  0  0  0
    1.7350   -1.1554    0.7190 H   0  0  0  0  0  0  0  0  0  0  0  0
    3.8325   -0.1556    1.4945 H   0  0  0  0  0  0  0  0  0  0  0  0
    2.6228    0.4017    2.4322 H   0  0  0  0  0  0  0  0  0  0  0  0
   -0.5195    0.7585   -2.3524 H   0  0  0  0  0  0  0  0  0  0  0  0
   -0.7718   -0.2971    1.8080 H   0  0  0  0  0  0  0  0  0  0  0  0
   -3.0683   -1.1297    1.4544 H   0  0  0  0  0  0  0  0  0  0  0  0
   -2.8161   -0.0747   -2.7005 H   0  0  0  0  0  0  0  0  0  0  0  0
   -4.0999   -1.0260   -0.8010 H   0  0  0  0  0  0  0  0  0  0  0  0
  2  1  1  0
  3  1  1  0
  1  4  1  0
  3  5  1  0
  6  4  2  0
  7  4  1  0
  8  7  2  0
  9  6  1  0
 10  9  2  0
  3  2  1  0
  8 10  1  0
 12 11  1  0
 13 11  1  0
 11 14  1  0
 13 15  1  0
 16 14  2  0
 17 14  1  0
 18 17  2  0
 19 16  1  0
 20 19  2  0
 13 12  1  0
 18 20  1  0
  1 21  1  6
  2 22  1  0
  2 23  1  0
  3 24  1  1
  5 25  1  0
  5 26  1  0
  6 27  1  0
  7 28  1  0
  8 29  1  0
  9 30  1  0
 10 31  1  0
 11 32  1  1
 12 33  1  0
 12 34  1  0
 13 35  1  6
 15 36  1  0
 15 37  1  0
 16 38  1  0
 17 39  1  0
 18 40  1  0
 19 41  1  0
 20 42  1  0
M  END
$$$$
