
     RDKit          3D

 20 22  0  0  0  0  0  0  0  0999 V2000
   -1.3454   -0.4321   -0.3539 C   0  0  1  0  0  0  0  0  0  0  0  0
   -2.2545   -1.0906    0.5716 C   0  0  0  0  0  0  0  0  0  0  0  0
   -2.1557    0.3821    0.6968 C   0  0  2  0  0  0  0  0  0  0  0  0
    0.1028   -0.2576   -0.1472 C   0  0  0  0  0  0  0  0  0  0  0  0
   -3.0972    1.2654    0.0243 N   0  0  0  0  0  0  0  0  0  0  0  0
    0.8817   -1.0545    0.6367 C   0  0  0  0  0  0  0  0  0  0  0  0
    0.7182    0.8044   -0.8054 C   0  0  0  0  0  0  0  0  0  0  0  0
    2.0534    1.0213   -0.6571 C   0  0  0  0  0  0  0  0  0  0  0  0
    2.2496   -0.8558    0.8063 C   0  0  0  0  0  0  0  0  0  0  0  0
    2.8472    0.2173    0.1356 C   0  0  0  0  0  0  0  0  0  0  0  0
    1.2979    0.3439   -0.6800 C   0  0  2  0  0  0  0  0  0  0  0  0
    1.9911   -0.9308   -1.1534 C   0  0  0  0  0  0  0  0  0  0  0  0
    2.3076   -0.2805    0.2178 C   0  0  1  0  0  0  0  0  0  0  0  0
   -0.1563    0.2081   -0.3524 C   0  0  0  0  0  0  0  0  0  0  0  0
    3.5935    0.3725    0.2233 N   0  0  0  0  0  0  0  0  0  0  0  0
   -1.0205    1.2988   -0.4100 C   0  0  0  0  0  0  0  0  0  0  0  0
   -0.7186   -0.9977    0.0227 C   0  0  0  0  0  0  0  0  0  0  0  0
   -2.0492   -1.1393    0.3261 C   0  0  0  0  0  0  0  0  0  0  0  0
   -2.3578    1.1718   -0.1083 C   0  0  0  0  0  0  0  0  0  0  0  0
   -2.8877   -0.0468    0.2628 C   0  0  0  0  0  0  0  0  0  0  0  0
  2  1  1  0
  3  1  1  0
  1  4  1  1
  3  5  1  6
  6  4  2  0
  7  4  1  0
  8  7  2  0
  9  6  1  0
 10  9  2  0
  3  2  1  0
  8 10  1  0
 12 11  1  0
 13 11  1  0
 11 14  1  1
 13 15  1  6
 16 14  2  0
 17 14  1  0
 18 17  2  0
 19 16  1  0
 20 19  2  0
 13 12  1  0
 18 20  1  0
M  END
