
     RDKit          3D

 42 44  0  0  0  0  0  0  0  0999 V2000
    1.0012   -0.5179   -0.5329 C   0  0  1  0  0  0  0  0  0  0  0  0
    2.1176    0.4998   -0.4711 C   0  0  0  0  0  0  0  0  0  0  0  0
    1.8942   -0.4222    0.6866 C   0  0  2  0  0  0  0  0  0  0  0  0
   -0.4392   -0.0702   -0.4485 C   0  0  0  0  0  0  0  0  0  0  0  0
    2.8628   -1.4826    0.9647 N   0  0  0  0  0  0  0  0  0  0  0  0
   -0.9612    0.8912   -1.3298 C   0  0  0  0  0  0  0  0  0  0  0  0
   -1.3188   -0.6260    0.4955 C   0  0  0  0  0  0  0  0  0  0  0  0
   -2.6561   -0.2278    0.5696 C   0  0  0  0  0  0  0  0  0  0  0  0
   -2.2976    1.2941   -1.2610 C   0  0  0  0  0  0  0  0  0  0  0  0
   -3.1448    0.7347   -0.3087 C   0  0  0  0  0  0  0  0  0  0  0  0
   -1.1136   -0.0207   -0.4977 C   0  0  2  0  0  0  0  0  0  0  0  0
   -2.0876    0.8324    0.2829 C   0  0  0  0  0  0  0  0  0  0  0  0
   -1.9720   -0.6274    0.5928 C   0  0  1  0  0  0  0  0  0  0  0  0
    0.3733    0.1420   -0.2861 C   0  0  0  0  0  0  0  0  0  0  0  0
   -3.0738   -1.5244    0.2447 N   0  0  0  0  0  0  0  0  0  0  0  0
    1.0005    1.3900   -0.4385 C   0  0  0  0  0  0  0  0  0  0  0  0
    1.1891   -0.9548    0.0379 C   0  0  0  0  0  0  0  0  0  0  0  0
    2.5674   -0.8108    0.2188 C   0  0  0  0  0  0  0  0  0  0  0  0
    2.3781    1.5410   -0.2589 C   0  0  0  0  0  0  0  0  0  0  0  0
    3.1614    0.4391    0.0716 C   0  0  0  0  0  0  0  0  0  0  0  0
    1.1691   -1.3695   -1.1889 H   0  0  0  0  0  0  0  0  0  0  0  0
    1.8660    1.5451   -0.3297 H   0  0  0  0  0  0  0  0  0  0  0  0
    2.9751    0.3423   -1.1141 H   0  0  0  0  0  0  0  0  0  0  0  0
    1.4632    0.0248    1.5810 H   0  0  0  0  0  0  0  0  0  0  0  0
    3.2569   -1.8646    0.1063 H   0  0  0  0  0  0  0  0  0  0  0  0
    3.6517   -1.1149    1.4959 H   0  0  0  0  0  0  0  0  0  0  0  0
   -0.3146    1.3337   -2.0845 H   0  0  0  0  0  0  0  0  0  0  0  0
   -0.9527   -1.3848    1.1848 H   0  0  0  0  0  0  0  0  0  0  0  0
   -3.3133   -0.6727    1.3120 H   0  0  0  0  0  0  0  0  0  0  0  0
   -2.6749    2.0420   -1.9532 H   0  0  0  0  0  0  0  0  0  0  0  0
   -4.1846    1.0452   -0.2538 H   0  0  0  0  0  0  0  0  0  0  0  0
   -1.3998   -0.2409   -1.5241 H   0  0  0  0  0  0  0  0  0  0  0  0
   -1.7051    1.5272    1.0223 H   0  0  0  0  0  0  0  0  0  0  0  0
   -2.9740    1.1881   -0.2288 H   0  0  0  0  0  0  0  0  0  0  0  0
   -1.4876   -0.8724    1.5367 H   0  0  0  0  0  0  0  0  0  0  0  0
   -3.5162   -1.2525   -0.6320 H   0  0  0  0  0  0  0  0  0  0  0  0
   -2.7302   -2.4737    0.1026 H   0  0  0  0  0  0  0  0  0  0  0  0
    0.4040    2.2610   -0.7021 H   0  0  0  0  0  0  0  0  0  0  0  0
    0.7424   -1.9403    0.1523 H   0  0  0  0  0  0  0  0  0  0  0  0
    3.1743   -1.6756    0.4730 H   0  0  0  0  0  0  0  0  0  0  0  0
    2.8366    2.5189   -0.3790 H   0  0  0  0  0  0  0  0  0  0  0  0
    4.2328    0.5539    0.2115 H   0  0  0  0  0  0  0  0  0  0  0  0
  2  1  1  0
  3  1  1  0
  1  4  1  0
  3  5  1  0
  6  4  2  0
  7  4  1  0
  8  7  2  0
  9  6  1  0
 10  9  2  0
  3  2  1  0
  8 10  1  0
 12 11  1  0
 13 11  1  0
 11 14  1  0
 13 15  1  0
 16 14  2  0
 17 14  1  0
 18 17  2  0
 19 16  1  0
 20 19  2  0
 13 12  1  0
 18 20  1  0
  1 21  1  6
  2 22  1  0
  2 23  1  0
  3 24  1  1
  5 25  1  0
  5 26  1  0
  6 27  1  0
  7 28  1  0
  8 29  1  0
  9 30  1  0
 10 31  1  0
 11 32  1  6
 12 33  1  0
 12 34  1  0
 13 35  1  1
 15 36  1  0
 15 37  1  0
 16 38  1  0
 17 39  1  0
 18 40  1  0
 19 41  1  0
 20 42  1  0
M  END
$$$$
