
     RDKit          3D

 42 44  0  0  0  0  0  0  0  0999 V2000
    0.9806   -0.3169    0.6528 C   0  0  1  0  0  0  0  0  0  0  0  0
    2.0412   -0.9574   -0.2134 C   0  0  0  0  0  0  0  0  0  0  0  0
    2.0897    0.5161    0.0448 C   0  0  2  0  0  0  0  0  0  0  0  0
   -0.4342   -0.1818    0.1406 C   0  0  0  0  0  0  0  0  0  0  0  0
    3.1479    1.0609    0.8953 N   0  0  0  0  0  0  0  0  0  0  0  0
   -1.1599   -1.3000   -0.3032 C   0  0  0  0  0  0  0  0  0  0  0  0
   -1.0883    1.0615    0.1204 C   0  0  0  0  0  0  0  0  0  0  0  0
   -2.4024    1.1870   -0.3383 C   0  0  0  0  0  0  0  0  0  0  0  0
   -2.4742   -1.1813   -0.7630 C   0  0  0  0  0  0  0  0  0  0  0  0
   -3.0947    0.0642   -0.7818 C   0  0  0  0  0  0  0  0  0  0  0  0
   -1.0715   -0.4078   -0.4742 C   0  0  2  0  0  0  0  0  0  0  0  0
   -1.8632    0.7642   -1.0070 C   0  0  0  0  0  0  0  0  0  0  0  0
   -2.0472    0.3338    0.4143 C   0  0  1  0  0  0  0  0  0  0  0  0
    0.4147   -0.2761   -0.2379 C   0  0  0  0  0  0  0  0  0  0  0  0
   -3.3014   -0.3148    0.7958 N   0  0  0  0  0  0  0  0  0  0  0  0
    1.2820    0.1586   -1.2540 C   0  0  0  0  0  0  0  0  0  0  0  0
    0.9888   -0.6159    0.9986 C   0  0  0  0  0  0  0  0  0  0  0  0
    2.3647   -0.5087    1.2185 C   0  0  0  0  0  0  0  0  0  0  0  0
    2.6587    0.2682   -1.0409 C   0  0  0  0  0  0  0  0  0  0  0  0
    3.1996   -0.0640    0.1976 C   0  0  0  0  0  0  0  0  0  0  0  0
    1.0545   -0.5262    1.7179 H   0  0  0  0  0  0  0  0  0  0  0  0
    1.7809   -1.2758   -1.2168 H   0  0  0  0  0  0  0  0  0  0  0  0
    2.7726   -1.5955    0.2680 H   0  0  0  0  0  0  0  0  0  0  0  0
    1.8354    1.1518   -0.8017 H   0  0  0  0  0  0  0  0  0  0  0  0
    2.8465    1.9354    1.3245 H   0  0  0  0  0  0  0  0  0  0  0  0
    3.3705    0.4326    1.6662 H   0  0  0  0  0  0  0  0  0  0  0  0
   -0.6917   -2.2821   -0.2905 H   0  0  0  0  0  0  0  0  0  0  0  0
   -0.5640    1.9491    0.4681 H   0  0  0  0  0  0  0  0  0  0  0  0
   -2.8830    2.1617   -0.3469 H   0  0  0  0  0  0  0  0  0  0  0  0
   -3.0108   -2.0625   -1.1042 H   0  0  0  0  0  0  0  0  0  0  0  0
   -4.1166    0.1592   -1.1388 H   0  0  0  0  0  0  0  0  0  0  0  0
   -1.3901   -1.3876   -0.8258 H   0  0  0  0  0  0  0  0  0  0  0  0
   -1.3562    1.7058   -1.1822 H   0  0  0  0  0  0  0  0  0  0  0  0
   -2.6521    0.5511   -1.7191 H   0  0  0  0  0  0  0  0  0  0  0  0
   -1.6305    0.9947    1.1722 H   0  0  0  0  0  0  0  0  0  0  0  0
   -4.0088    0.3820    1.0275 H   0  0  0  0  0  0  0  0  0  0  0  0
   -3.1728   -0.8774    1.6363 H   0  0  0  0  0  0  0  0  0  0  0  0
    0.8763    0.4150   -2.2305 H   0  0  0  0  0  0  0  0  0  0  0  0
    0.3512   -0.9736    1.8043 H   0  0  0  0  0  0  0  0  0  0  0  0
    2.7819   -0.7763    2.1855 H   0  0  0  0  0  0  0  0  0  0  0  0
    3.3059    0.6099   -1.8442 H   0  0  0  0  0  0  0  0  0  0  0  0
    4.2699    0.0189    0.3652 H   0  0  0  0  0  0  0  0  0  0  0  0
  2  1  1  0
  3  1  1  0
  1  4  1  0
  3  5  1  0
  6  4  2  0
  7  4  1  0
  8  7  2  0
  9  6  1  0
 10  9  2  0
  3  2  1  0
  8 10  1  0
 12 11  1  0
 13 11  1  0
 11 14  1  0
 13 15  1  0
 16 14  2  0
 17 14  1  0
 18 17  2  0
 19 16  1  0
 20 19  2  0
 13 12  1  0
 18 20  1  0
  1 21  1  1
  2 22  1  0
  2 23  1  0
  3 24  1  6
  5 25  1  0
  5 26  1  0
  6 27  1  0
  7 28  1  0
  8 29  1  0
  9 30  1  0
 10 31  1  0
 11 32  1  6
 12 33  1  0
 12 34  1  0
 13 35  1  1
 15 36  1  0
 15 37  1  0
 16 38  1  0
 17 39  1  0
 18 40  1  0
 19 41  1  0
 20 42  1  0
M  END
$$$$
