
     RDKit          3D

 42 44  0  0  0  0  0  0  0  0999 V2000
   -1.0799    0.5878   -0.0340 C   0  0  1  0  0  0  0  0  0  0  0  0
   -1.9229   -0.0861   -1.0874 C   0  0  0  0  0  0  0  0  0  0  0  0
   -2.0722   -0.4940    0.3467 C   0  0  2  0  0  0  0  0  0  0  0  0
    0.4028    0.3098    0.0466 C   0  0  0  0  0  0  0  0  0  0  0  0
   -3.3097   -0.1385    1.0441 N   0  0  0  0  0  0  0  0  0  0  0  0
    1.2419    0.4920   -1.0654 C   0  0  0  0  0  0  0  0  0  0  0  0
    1.0027   -0.1092    1.2459 C   0  0  0  0  0  0  0  0  0  0  0  0
    2.3763   -0.3531    1.3282 C   0  0  0  0  0  0  0  0  0  0  0  0
    2.6162    0.2501   -0.9898 C   0  0  0  0  0  0  0  0  0  0  0  0
    3.1828   -0.1747    0.2082 C   0  0  0  0  0  0  0  0  0  0  0  0
   -1.0990   -0.4685   -0.0176 C   0  0  2  0  0  0  0  0  0  0  0  0
   -1.9464    0.3467   -0.9679 C   0  0  0  0  0  0  0  0  0  0  0  0
   -1.9305    0.6918    0.4884 C   0  0  1  0  0  0  0  0  0  0  0  0
    0.4070   -0.3553   -0.0560 C   0  0  0  0  0  0  0  0  0  0  0  0
   -3.1162    0.4361    1.3060 N   0  0  0  0  0  0  0  0  0  0  0  0
    1.1286   -0.5707   -1.2420 C   0  0  0  0  0  0  0  0  0  0  0  0
    1.1436   -0.0621    1.1039 C   0  0  0  0  0  0  0  0  0  0  0  0
    2.5376    0.0304    1.0790 C   0  0  0  0  0  0  0  0  0  0  0  0
    2.5228   -0.4800   -1.2736 C   0  0  0  0  0  0  0  0  0  0  0  0
    3.2270   -0.1771   -0.1119 C   0  0  0  0  0  0  0  0  0  0  0  0
   -1.3588    1.6135    0.1985 H   0  0  0  0  0  0  0  0  0  0  0  0
   -1.4588   -0.7977   -1.7607 H   0  0  0  0  0  0  0  0  0  0  0  0
   -2.7191    0.4908   -1.5440 H   0  0  0  0  0  0  0  0  0  0  0  0
   -1.6780   -1.4773    0.5977 H   0  0  0  0  0  0  0  0  0  0  0  0
   -3.2205    0.7633    1.5114 H   0  0  0  0  0  0  0  0  0  0  0  0
   -3.5136   -0.8116    1.7828 H   0  0  0  0  0  0  0  0  0  0  0  0
    0.8160    0.8291   -2.0082 H   0  0  0  0  0  0  0  0  0  0  0  0
    0.3883   -0.2477    2.1330 H   0  0  0  0  0  0  0  0  0  0  0  0
    2.8139   -0.6799    2.2677 H   0  0  0  0  0  0  0  0  0  0  0  0
    3.2413    0.3962   -1.8666 H   0  0  0  0  0  0  0  0  0  0  0  0
    4.2513   -0.3628    0.2696 H   0  0  0  0  0  0  0  0  0  0  0  0
   -1.4687   -1.4653    0.2137 H   0  0  0  0  0  0  0  0  0  0  0  0
   -2.8248   -0.1276   -1.3884 H   0  0  0  0  0  0  0  0  0  0  0  0
   -1.4560    1.0354   -1.6473 H   0  0  0  0  0  0  0  0  0  0  0  0
   -1.3966    1.6007    0.7614 H   0  0  0  0  0  0  0  0  0  0  0  0
   -3.7930    1.1915    1.1992 H   0  0  0  0  0  0  0  0  0  0  0  0
   -3.5967   -0.4142    1.0146 H   0  0  0  0  0  0  0  0  0  0  0  0
    0.5943   -0.8148   -2.1576 H   0  0  0  0  0  0  0  0  0  0  0  0
    0.6185    0.0963    2.0443 H   0  0  0  0  0  0  0  0  0  0  0  0
    3.0813    0.2620    1.9910 H   0  0  0  0  0  0  0  0  0  0  0  0
    3.0561   -0.6485   -2.2053 H   0  0  0  0  0  0  0  0  0  0  0  0
    4.3111   -0.1068   -0.1336 H   0  0  0  0  0  0  0  0  0  0  0  0
  2  1  1  0
  3  1  1  0
  1  4  1  0
  3  5  1  0
  6  4  2  0
  7  4  1  0
  8  7  2  0
  9  6  1  0
 10  9  2  0
  3  2  1  0
  8 10  1  0
 12 11  1  0
 13 11  1  0
 11 14  1  0
 13 15  1  0
 16 14  2  0
 17 14  1  0
 18 17  2  0
 19 16  1  0
 20 19  2  0
 13 12  1  0
 18 20  1  0
  1 21  1  1
  2 22  1  0
  2 23  1  0
  3 24  1  6
  5 25  1  0
  5 26  1  0
  6 27  1  0
  7 28  1  0
  8 29  1  0
  9 30  1  0
 10 31  1  0
 11 32  1  1
 12 33  1  0
 12 34  1  0
 13 35  1  6
 15 36  1  0
 15 37  1  0
 16 38  1  0
 17 39  1  0
 18 40  1  0
 19 41  1  0
 20 42  1  0
M  END
$$$$
