
     RDKit          3D

109114  0  0  0  0  0  0  0  0999 V2000
    4.9118   -1.2189   -2.9936 O   0  0  0  0  0  0  0  0  0  0  0  0
    4.5799   -0.9506   -1.6140 C   0  0  2  0  0  0  0  0  0  0  0  0
    3.0774   -0.6385   -1.5680 C   0  0  0  0  0  0  0  0  0  0  0  0
    2.4771   -0.4015   -0.1774 C   0  0  2  0  0  0  0  0  0  0  0  0
    2.7427   -1.5092    0.6713 O   0  0  0  0  0  0  0  0  0  0  0  0
    0.9818   -0.2971   -0.2647 C   0  0  0  0  0  0  0  0  0  0  0  0
    0.2832    0.7776    0.1347 C   0  0  0  0  0  0  0  0  0  0  0  0
   -1.1864    0.8563    0.0382 C   0  0  0  0  0  0  0  0  0  0  0  0
   -1.7647    1.7522   -0.8808 C   0  0  0  0  0  0  0  0  0  0  0  0
   -3.1126    1.8732   -1.0033 N   0  0  0  0  0  0  0  0  0  0  0  0
   -3.9166    1.1191   -0.2467 C   0  0  0  0  0  0  0  0  0  0  0  0
   -5.2847    1.2701   -0.4213 C   0  0  0  0  0  0  0  0  0  0  0  0
   -6.2155    0.5302    0.3103 C   0  0  0  0  0  0  0  0  0  0  0  0
   -5.7702   -0.3737    1.2623 C   0  0  0  0  0  0  0  0  0  0  0  0
   -4.3987   -0.5326    1.4640 C   0  0  0  0  0  0  0  0  0  0  0  0
   -3.4441    0.1977    0.7071 C   0  0  0  0  0  0  0  0  0  0  0  0
   -2.0354    0.0686    0.8531 C   0  0  0  0  0  0  0  0  0  0  0  0
   -1.4734   -0.8624    1.8520 C   0  0  0  0  0  0  0  0  0  0  0  0
   -1.3742   -2.2380    1.5763 C   0  0  0  0  0  0  0  0  0  0  0  0
   -0.8379   -3.1133    2.5223 C   0  0  0  0  0  0  0  0  0  0  0  0
   -0.4004   -2.6190    3.7454 C   0  0  0  0  0  0  0  0  0  0  0  0
    0.1024   -3.4621    4.6586 F   0  0  0  0  0  0  0  0  0  0  0  0
   -0.4821   -1.2636    4.0387 C   0  0  0  0  0  0  0  0  0  0  0  0
   -1.0204   -0.3867    3.0949 C   0  0  0  0  0  0  0  0  0  0  0  0
   -0.9192    2.6519   -1.7701 C   0  0  0  0  0  0  0  0  0  0  0  0
   -1.3749    2.9763   -3.1784 C   0  0  0  0  0  0  0  0  0  0  0  0
   -0.2005    2.0740   -2.9687 C   0  0  0  0  0  0  0  0  0  0  0  0
    5.4800    0.1823   -1.1445 C   0  0  0  0  0  0  0  0  0  0  0  0
    5.6258    0.3066    0.3689 C   0  0  0  0  0  0  0  0  0  0  0  0
    5.1428   -0.6369    1.0593 O   0  0  0  0  0  0  0  0  0  0  0  0
    6.1952    1.3657    0.7587 O   0  0  0  0  0  0  0  0  0  0  0  0
    0.0000    0.0000    0.0000 Ca  0  0  0  0  0 15  0  0  0  0  0  0
    3.5007    1.8127    0.4774 O   0  0  0  0  0  0  0  0  0  0  0  0
    3.7035    2.1564   -0.8987 C   0  0  2  0  0  0  0  0  0  0  0  0
    2.3879    2.1029   -1.6969 C   0  0  0  0  0  0  0  0  0  0  0  0
    1.1510    2.6639   -0.9779 C   0  0  2  0  0  0  0  0  0  0  0  0
    1.4863    3.7871   -0.1701 O   0  0  0  0  0  0  0  0  0  0  0  0
    0.4729    1.6575   -0.0943 C   0  0  0  0  0  0  0  0  0  0  0  0
   -0.7958    1.2511   -0.2466 C   0  0  0  0  0  0  0  0  0  0  0  0
   -1.3622    0.2196    0.6359 C   0  0  0  0  0  0  0  0  0  0  0  0
   -1.9489    0.5928    1.8581 C   0  0  0  0  0  0  0  0  0  0  0  0
   -2.4356   -0.3371    2.7209 N   0  0  0  0  0  0  0  0  0  0  0  0
   -2.3445   -1.6387    2.4171 C   0  0  0  0  0  0  0  0  0  0  0  0
   -2.8304   -2.5530    3.3430 C   0  0  0  0  0  0  0  0  0  0  0  0
   -2.7740   -3.9303    3.1228 C   0  0  0  0  0  0  0  0  0  0  0  0
   -2.2209   -4.4127    1.9451 C   0  0  0  0  0  0  0  0  0  0  0  0
   -1.7249   -3.5146    1.0012 C   0  0  0  0  0  0  0  0  0  0  0  0
   -1.7780   -2.1132    1.2153 C   0  0  0  0  0  0  0  0  0  0  0  0
   -1.2864   -1.1501    0.2932 C   0  0  0  0  0  0  0  0  0  0  0  0
   -0.7286   -1.5627   -1.0156 C   0  0  0  0  0  0  0  0  0  0  0  0
   -1.5848   -1.7957   -2.1082 C   0  0  0  0  0  0  0  0  0  0  0  0
   -1.0686   -2.1777   -3.3480 C   0  0  0  0  0  0  0  0  0  0  0  0
    0.3049   -2.3202   -3.5084 C   0  0  0  0  0  0  0  0  0  0  0  0
    0.7907   -2.6818   -4.7030 F   0  0  0  0  0  0  0  0  0  0  0  0
    1.1710   -2.0969   -2.4458 C   0  0  0  0  0  0  0  0  0  0  0  0
    0.6549   -1.7219   -1.2029 C   0  0  0  0  0  0  0  0  0  0  0  0
   -2.0621    2.0475    2.2935 C   0  0  0  0  0  0  0  0  0  0  0  0
   -3.2993    2.5365    3.0169 C   0  0  0  0  0  0  0  0  0  0  0  0
   -3.0445    2.9674    1.6033 C   0  0  0  0  0  0  0  0  0  0  0  0
    4.8223    1.3154   -1.5063 C   0  0  0  0  0  0  0  0  0  0  0  0
    4.4281   -0.1574   -1.5558 C   0  0  0  0  0  0  0  0  0  0  0  0
    4.6110   -0.7371   -2.6636 O   0  0  0  0  0  0  0  0  0  0  0  0
    3.9394   -0.6063   -0.4748 O   0  0  0  0  0  0  0  0  0  0  0  0
    4.5032   -2.0724   -3.2060 H   0  0  0  0  0  0  0  0  0  0  0  0
    4.7961   -1.8742   -1.0683 H   0  0  0  0  0  0  0  0  0  0  0  0
    2.8616    0.2197   -2.2198 H   0  0  0  0  0  0  0  0  0  0  0  0
    2.5622   -1.4903   -2.0381 H   0  0  0  0  0  0  0  0  0  0  0  0
    2.8782    0.5106    0.2824 H   0  0  0  0  0  0  0  0  0  0  0  0
    3.6610   -1.3291    1.0160 H   0  0  0  0  0  0  0  0  0  0  0  0
    0.4712   -1.1695   -0.6628 H   0  0  0  0  0  0  0  0  0  0  0  0
    0.7879    1.6520    0.5391 H   0  0  0  0  0  0  0  0  0  0  0  0
   -5.6413    1.9831   -1.1622 H   0  0  0  0  0  0  0  0  0  0  0  0
   -7.2807    0.6666    0.1391 H   0  0  0  0  0  0  0  0  0  0  0  0
   -6.4783   -0.9574    1.8465 H   0  0  0  0  0  0  0  0  0  0  0  0
   -4.0718   -1.2475    2.2172 H   0  0  0  0  0  0  0  0  0  0  0  0
   -1.6964   -2.6278    0.6134 H   0  0  0  0  0  0  0  0  0  0  0  0
   -0.7451   -4.1726    2.3083 H   0  0  0  0  0  0  0  0  0  0  0  0
   -0.1109   -0.8931    4.9882 H   0  0  0  0  0  0  0  0  0  0  0  0
   -1.0712    0.6761    3.3264 H   0  0  0  0  0  0  0  0  0  0  0  0
   -0.4158    3.4600   -1.2441 H   0  0  0  0  0  0  0  0  0  0  0  0
   -1.1896    3.9767   -3.5515 H   0  0  0  0  0  0  0  0  0  0  0  0
   -2.2982    2.5352   -3.5349 H   0  0  0  0  0  0  0  0  0  0  0  0
   -0.3224    1.0199   -3.1894 H   0  0  0  0  0  0  0  0  0  0  0  0
    0.7884    2.4605   -3.1815 H   0  0  0  0  0  0  0  0  0  0  0  0
    5.1312    1.1391   -1.5552 H   0  0  0  0  0  0  0  0  0  0  0  0
    6.4931    0.0369   -1.5471 H   0  0  0  0  0  0  0  0  0  0  0  0
    3.5496    0.8169    0.4873 H   0  0  0  0  0  0  0  0  0  0  0  0
    4.0461    3.2006   -0.8910 H   0  0  0  0  0  0  0  0  0  0  0  0
    2.5503    2.6877   -2.6122 H   0  0  0  0  0  0  0  0  0  0  0  0
    2.1647    1.0834   -2.0332 H   0  0  0  0  0  0  0  0  0  0  0  0
    0.4436    3.0163   -1.7379 H   0  0  0  0  0  0  0  0  0  0  0  0
    2.1237    3.4399    0.4898 H   0  0  0  0  0  0  0  0  0  0  0  0
    1.0798    1.2334    0.7048 H   0  0  0  0  0  0  0  0  0  0  0  0
   -1.4375    1.6357   -1.0329 H   0  0  0  0  0  0  0  0  0  0  0  0
   -3.2657   -2.1717    4.2625 H   0  0  0  0  0  0  0  0  0  0  0  0
   -3.1631   -4.6108    3.8718 H   0  0  0  0  0  0  0  0  0  0  0  0
   -2.1629   -5.4835    1.7672 H   0  0  0  0  0  0  0  0  0  0  0  0
   -1.2806   -3.9196    0.0934 H   0  0  0  0  0  0  0  0  0  0  0  0
   -2.6597   -1.6780   -1.9951 H   0  0  0  0  0  0  0  0  0  0  0  0
   -1.7243   -2.3455   -4.1993 H   0  0  0  0  0  0  0  0  0  0  0  0
    2.2466   -2.1907   -2.5848 H   0  0  0  0  0  0  0  0  0  0  0  0
    1.3541   -1.5260   -0.3896 H   0  0  0  0  0  0  0  0  0  0  0  0
   -1.1231    2.4954    2.6131 H   0  0  0  0  0  0  0  0  0  0  0  0
   -4.1042    1.8326    3.1947 H   0  0  0  0  0  0  0  0  0  0  0  0
   -3.1596    3.2628    3.8079 H   0  0  0  0  0  0  0  0  0  0  0  0
   -2.7283    3.9902    1.4274 H   0  0  0  0  0  0  0  0  0  0  0  0
   -3.6788    2.5580    0.8252 H   0  0  0  0  0  0  0  0  0  0  0  0
    5.7248    1.3875   -0.8863 H   0  0  0  0  0  0  0  0  0  0  0  0
    5.0691    1.6822   -2.5094 H   0  0  0  0  0  0  0  0  0  0  0  0
  2  1  1  0
  2  3  1  0
  3  4  1  0
  4  5  1  0
  4  6  1  0
  6  7  2  0
  7  8  1  0
  8  9  2  0
  9 10  1  0
 10 11  2  0
 11 12  1  0
 12 13  2  0
 13 14  1  0
 14 15  2  0
 15 16  1  0
 11 16  1  0
 16 17  2  0
  8 17  1  0
 17 18  1  0
 18 19  2  0
 19 20  1  0
 20 21  2  0
 21 22  1  0
 21 23  1  0
 23 24  2  0
 18 24  1  0
  9 25  1  0
 25 26  1  0
 26 27  1  0
 25 27  1  0
  2 28  1  0
 28 29  1  0
 29 30  2  0
 29 31  1  0
 34 33  1  0
 34 35  1  0
 35 36  1  0
 36 37  1  0
 36 38  1  0
 38 39  2  0
 39 40  1  0
 40 41  2  0
 41 42  1  0
 42 43  2  0
 43 44  1  0
 44 45  2  0
 45 46  1  0
 46 47  2  0
 47 48  1  0
 43 48  1  0
 48 49  2  0
 40 49  1  0
 49 50  1  0
 50 51  2  0
 51 52  1  0
 52 53  2  0
 53 54  1  0
 53 55  1  0
 55 56  2  0
 50 56  1  0
 41 57  1  0
 57 58  1  0
 58 59  1  0
 57 59  1  0
 34 60  1  0
 60 61  1  0
 61 62  2  0
 61 63  1  0
  1 64  1  0
  2 65  1  1
  3 66  1  0
  3 67  1  0
  4 68  1  1
  5 69  1  0
  6 70  1  0
  7 71  1  0
 12 72  1  0
 13 73  1  0
 14 74  1  0
 15 75  1  0
 19 76  1  0
 20 77  1  0
 23 78  1  0
 24 79  1  0
 25 80  1  0
 26 81  1  0
 26 82  1  0
 27 83  1  0
 27 84  1  0
 28 85  1  0
 28 86  1  0
 33 87  1  0
 34 88  1  1
 35 89  1  0
 35 90  1  0
 36 91  1  6
 37 92  1  0
 38 93  1  0
 39 94  1  0
 44 95  1  0
 45 96  1  0
 46 97  1  0
 47 98  1  0
 51 99  1  0
 52100  1  0
 55101  1  0
 56102  1  0
 57103  1  0
 58104  1  0
 58105  1  0
 59106  1  0
 59107  1  0
 60108  1  0
 60109  1  0
M  CHG  3  31  -1  32   2  63  -1
M  END
$$$$
