
     RDKit          3D

 90 88  0  0  0  0  0  0  0  0999 V2000
   -0.9052   -1.1859    0.3476 N   0  0  0  0  0  0  0  0  0  0  0  0
    0.8287    1.0803   -0.4680 N   0  0  0  0  0  0  0  0  0  0  0  0
    0.4579   -1.3875   -0.1782 C   0  0  0  0  0  0  0  0  0  0  0  0
    1.3805   -0.1731    0.0643 C   0  0  0  0  0  0  0  0  0  0  0  0
   -1.4527    0.0557   -0.2304 C   0  0  0  0  0  0  0  0  0  0  0  0
   -0.5454    1.2817    0.0118 C   0  0  0  0  0  0  0  0  0  0  0  0
    0.1965    0.5446    0.3491 C   0  0  0  0  0  0  0  0  0  0  0  0
    0.5332    0.0599   -1.0676 C   0  0  0  0  0  0  0  0  0  0  0  0
   -1.1814    0.1851    0.9207 C   0  0  0  0  0  0  0  0  0  0  0  0
    0.2801    2.0772    0.3449 C   0  0  0  0  0  0  0  0  0  0  0  0
   -1.7363   -1.1031    0.4032 C   0  0  0  0  0  0  0  0  0  0  0  0
    1.1244   -1.3215   -1.1141 C   0  0  0  0  0  0  0  0  0  0  0  0
    0.8964    2.7447    1.1637 O   0  0  0  0  0  0  0  0  0  0  0  0
    0.5343   -2.3764   -0.9443 O   0  0  0  0  0  0  0  0  0  0  0  0
   -2.3614   -1.2349   -0.6364 O   0  0  0  0  0  0  0  0  0  0  0  0
    1.2142    0.0834    1.2601 O   0  0  0  0  0  0  0  0  0  0  0  0
   -0.4342    2.6740   -0.6272 O   0  0  0  0  0  0  0  0  0  0  0  0
    2.4415   -1.3160   -1.4031 O   0  0  0  0  0  0  0  0  0  0  0  0
   -1.4468   -2.1517    1.1913 O   0  0  0  0  0  0  0  0  0  0  0  0
   -0.0737    1.3848    0.5245 N   0  0  0  0  0  0  0  0  0  0  0  0
    0.0735   -1.3847   -0.5247 N   0  0  0  0  0  0  0  0  0  0  0  0
    1.2026    0.7556    0.1478 C   0  0  0  0  0  0  0  0  0  0  0  0
    1.1645   -0.7834    0.2593 C   0  0  0  0  0  0  0  0  0  0  0  0
   -1.1648    0.7832   -0.2594 C   0  0  0  0  0  0  0  0  0  0  0  0
   -1.2026   -0.7556   -0.1477 C   0  0  0  0  0  0  0  0  0  0  0  0
    0.1567    0.6202   -0.5434 C   0  0  0  0  0  0  0  0  0  0  0  0
    0.9082    0.5951    0.7883 C   0  0  0  0  0  0  0  0  0  0  0  0
   -0.4631   -0.6803   -1.0622 C   0  0  0  0  0  0  0  0  0  0  0  0
   -0.8910    1.7377   -0.4727 C   0  0  0  0  0  0  0  0  0  0  0  0
   -1.3007   -1.4403   -0.0698 C   0  0  0  0  0  0  0  0  0  0  0  0
    2.0936   -0.3228    0.8036 C   0  0  0  0  0  0  0  0  0  0  0  0
   -0.6935    2.8946   -0.8219 O   0  0  0  0  0  0  0  0  0  0  0  0
    3.2505    0.0122    1.0000 O   0  0  0  0  0  0  0  0  0  0  0  0
   -1.3620   -1.2950    1.1376 O   0  0  0  0  0  0  0  0  0  0  0  0
    1.0982    1.0465   -1.5654 O   0  0  0  0  0  0  0  0  0  0  0  0
   -2.0741    1.3832    0.0513 O   0  0  0  0  0  0  0  0  0  0  0  0
    1.7824   -1.6209    0.6479 O   0  0  0  0  0  0  0  0  0  0  0  0
   -2.0306   -2.4027   -0.6723 O   0  0  0  0  0  0  0  0  0  0  0  0
    0.5532    1.4129    0.0731 N   0  0  0  0  0  0  0  0  0  0  0  0
   -0.4904   -1.4417   -0.0994 N   0  0  0  0  0  0  0  0  0  0  0  0
   -0.7796    1.0533   -0.4364 C   0  0  0  0  0  0  0  0  0  0  0  0
   -1.3473   -0.2668    0.1251 C   0  0  0  0  0  0  0  0  0  0  0  0
    1.2907    0.2292    0.5482 C   0  0  0  0  0  0  0  0  0  0  0  0
    0.9305   -1.0647   -0.2077 C   0  0  0  0  0  0  0  0  0  0  0  0
   -0.8360   -1.0578    1.3567 H   0  0  0  0  0  0  0  0  0  0  0  0
    1.4119    1.8633   -0.1776 H   0  0  0  0  0  0  0  0  0  0  0  0
    0.4038   -1.6081   -1.2516 H   0  0  0  0  0  0  0  0  0  0  0  0
    0.8912   -2.2713    0.3031 H   0  0  0  0  0  0  0  0  0  0  0  0
    2.3509   -0.3595   -0.4081 H   0  0  0  0  0  0  0  0  0  0  0  0
    1.5622   -0.0619    1.1407 H   0  0  0  0  0  0  0  0  0  0  0  0
   -2.4373    0.2429    0.2122 H   0  0  0  0  0  0  0  0  0  0  0  0
   -1.6120   -0.0850   -1.3068 H   0  0  0  0  0  0  0  0  0  0  0  0
   -0.5254    1.5155    1.0837 H   0  0  0  0  0  0  0  0  0  0  0  0
   -0.9729    2.1510   -0.4994 H   0  0  0  0  0  0  0  0  0  0  0  0
    1.2751    0.7312   -1.5244 H   0  0  0  0  0  0  0  0  0  0  0  0
   -0.3307    0.1021   -1.7405 H   0  0  0  0  0  0  0  0  0  0  0  0
   -1.9342    0.9482    0.6841 H   0  0  0  0  0  0  0  0  0  0  0  0
   -1.1518    0.1368    2.0168 H   0  0  0  0  0  0  0  0  0  0  0  0
    1.3453    0.7786    1.9362 H   0  0  0  0  0  0  0  0  0  0  0  0
   -0.2884    3.6352   -0.4924 H   0  0  0  0  0  0  0  0  0  0  0  0
    2.6959   -2.2617   -1.3652 H   0  0  0  0  0  0  0  0  0  0  0  0
   -1.6718   -2.9359    0.6450 H   0  0  0  0  0  0  0  0  0  0  0  0
   -0.0265    2.3813    0.3184 H   0  0  0  0  0  0  0  0  0  0  0  0
    0.0265   -2.3815   -0.3193 H   0  0  0  0  0  0  0  0  0  0  0  0
    1.9905    1.1425    0.8030 H   0  0  0  0  0  0  0  0  0  0  0  0
    1.4656    1.0456   -0.8776 H   0  0  0  0  0  0  0  0  0  0  0  0
    2.1168   -1.1917   -0.0955 H   0  0  0  0  0  0  0  0  0  0  0  0
    1.0624   -1.0744    1.3125 H   0  0  0  0  0  0  0  0  0  0  0  0
   -1.0623    1.0739   -1.3126 H   0  0  0  0  0  0  0  0  0  0  0  0
   -2.1175    1.1913    0.0953 H   0  0  0  0  0  0  0  0  0  0  0  0
   -1.4641   -1.0442    0.8783 H   0  0  0  0  0  0  0  0  0  0  0  0
   -1.9910   -1.1427   -0.8023 H   0  0  0  0  0  0  0  0  0  0  0  0
    0.2687    0.3647    1.6451 H   0  0  0  0  0  0  0  0  0  0  0  0
    1.3077    1.5995    0.9899 H   0  0  0  0  0  0  0  0  0  0  0  0
   -1.0985   -0.4490   -1.9280 H   0  0  0  0  0  0  0  0  0  0  0  0
    0.3178   -1.3552   -1.4320 H   0  0  0  0  0  0  0  0  0  0  0  0
    1.2011    2.0172   -1.4788 H   0  0  0  0  0  0  0  0  0  0  0  0
   -2.6062    2.2075    0.0554 H   0  0  0  0  0  0  0  0  0  0  0  0
    2.6467   -2.0787    0.7238 H   0  0  0  0  0  0  0  0  0  0  0  0
   -2.5119   -2.8335    0.0653 H   0  0  0  0  0  0  0  0  0  0  0  0
    0.4573    2.0628    0.8521 H   0  0  0  0  0  0  0  0  0  0  0  0
   -0.7621   -1.8994   -0.9690 H   0  0  0  0  0  0  0  0  0  0  0  0
   -1.4756    1.8722   -0.2219 H   0  0  0  0  0  0  0  0  0  0  0  0
   -0.7175    0.9788   -1.5290 H   0  0  0  0  0  0  0  0  0  0  0  0
   -2.3343   -0.4576   -0.3113 H   0  0  0  0  0  0  0  0  0  0  0  0
   -1.5036   -0.1585    1.2056 H   0  0  0  0  0  0  0  0  0  0  0  0
    2.3635    0.4260    0.4492 H   0  0  0  0  0  0  0  0  0  0  0  0
    1.0903    0.0871    1.6179 H   0  0  0  0  0  0  0  0  0  0  0  0
    1.5380   -1.8933    0.1713 H   0  0  0  0  0  0  0  0  0  0  0  0
    1.1866   -0.9404   -1.2678 H   0  0  0  0  0  0  0  0  0  0  0  0
  2  6  1  0
  3  1  1  0
  4  3  1  0
  5  1  1  0
  6  5  1  0
  2  4  1  0
  8  7  1  0
  9  7  1  0
 10  7  1  0
 11  9  1  0
 12  8  1  0
 13 10  2  0
 14 12  2  0
 15 11  2  0
 16  7  1  0
 17 10  1  0
 18 12  1  0
 19 11  1  0
 21 25  1  0
 22 20  1  0
 23 22  1  0
 24 20  1  0
 25 24  1  0
 21 23  1  0
 27 26  1  0
 28 26  1  0
 29 26  1  0
 30 28  1  0
 31 27  1  0
 32 29  2  0
 33 31  2  0
 34 30  2  0
 35 26  1  0
 36 29  1  0
 37 31  1  0
 38 30  1  0
 40 44  1  0
 41 39  1  0
 42 41  1  0
 43 39  1  0
 44 43  1  0
 40 42  1  0
  1 45  1  0
  2 46  1  0
  3 47  1  0
  3 48  1  0
  4 49  1  0
  4 50  1  0
  5 51  1  0
  5 52  1  0
  6 53  1  0
  6 54  1  0
  8 55  1  0
  8 56  1  0
  9 57  1  0
  9 58  1  0
 16 59  1  0
 17 60  1  0
 18 61  1  0
 19 62  1  0
 20 63  1  0
 21 64  1  0
 22 65  1  0
 22 66  1  0
 23 67  1  0
 23 68  1  0
 24 69  1  0
 24 70  1  0
 25 71  1  0
 25 72  1  0
 27 73  1  0
 27 74  1  0
 28 75  1  0
 28 76  1  0
 35 77  1  0
 36 78  1  0
 37 79  1  0
 38 80  1  0
 39 81  1  0
 40 82  1  0
 41 83  1  0
 41 84  1  0
 42 85  1  0
 42 86  1  0
 43 87  1  0
 43 88  1  0
 44 89  1  0
 44 90  1  0
M  END
$$$$
