
     RDKit          3D

 90 88  0  0  0  0  0  0  0  0999 V2000
    0.7751   -1.2559    0.1709 N   0  0  0  0  0  0  0  0  0  0  0  0
   -0.7748    1.2557   -0.1718 N   0  0  0  0  0  0  0  0  0  0  0  0
    1.4094    0.0092   -0.2401 C   0  0  0  0  0  0  0  0  0  0  0  0
    0.6384    1.2551    0.2462 C   0  0  0  0  0  0  0  0  0  0  0  0
   -0.6383   -1.2550   -0.2462 C   0  0  0  0  0  0  0  0  0  0  0  0
   -1.4090   -0.0089    0.2408 C   0  0  0  0  0  0  0  0  0  0  0  0
   -0.0951    0.5656   -0.3371 C   0  0  0  0  0  0  0  0  0  0  0  0
    1.0467    0.2874    0.6459 C   0  0  0  0  0  0  0  0  0  0  0  0
   -0.6106   -0.6433   -1.1206 C   0  0  0  0  0  0  0  0  0  0  0  0
   -1.2625    1.1740    0.4593 C   0  0  0  0  0  0  0  0  0  0  0  0
   -1.4069   -1.5897   -0.2743 C   0  0  0  0  0  0  0  0  0  0  0  0
    2.3266   -0.1377   -0.0125 C   0  0  0  0  0  0  0  0  0  0  0  0
   -1.5396    0.9801    1.6304 O   0  0  0  0  0  0  0  0  0  0  0  0
    2.4618   -0.8618   -0.9829 O   0  0  0  0  0  0  0  0  0  0  0  0
   -2.6210   -1.5976   -0.1674 O   0  0  0  0  0  0  0  0  0  0  0  0
    0.3537    1.5692   -1.2726 O   0  0  0  0  0  0  0  0  0  0  0  0
   -2.0347    1.9747   -0.3109 O   0  0  0  0  0  0  0  0  0  0  0  0
    3.4113    0.3259    0.6393 O   0  0  0  0  0  0  0  0  0  0  0  0
   -0.6462   -2.4625    0.4033 O   0  0  0  0  0  0  0  0  0  0  0  0
    0.8607   -1.1110    0.4827 N   0  0  0  0  0  0  0  0  0  0  0  0
   -0.8596    1.1112   -0.4824 N   0  0  0  0  0  0  0  0  0  0  0  0
   -0.5278   -1.3287    0.0392 C   0  0  0  0  0  0  0  0  0  0  0  0
   -1.4137   -0.0736    0.1961 C   0  0  0  0  0  0  0  0  0  0  0  0
    1.4136    0.0733   -0.1982 C   0  0  0  0  0  0  0  0  0  0  0  0
    0.5282    1.3279   -0.0380 C   0  0  0  0  0  0  0  0  0  0  0  0
    0.2673    0.2875    0.2253 C   0  0  0  0  0  0  0  0  0  0  0  0
   -0.9322   -0.6433    0.0011 C   0  0  0  0  0  0  0  0  0  0  0  0
    1.4451    0.0054   -0.7176 C   0  0  0  0  0  0  0  0  0  0  0  0
   -0.1186    1.7589   -0.0096 C   0  0  0  0  0  0  0  0  0  0  0  0
    1.9625   -1.3993   -0.6203 C   0  0  0  0  0  0  0  0  0  0  0  0
   -2.1624   -0.1656    0.7195 C   0  0  0  0  0  0  0  0  0  0  0  0
    0.0681    2.6839    0.7660 O   0  0  0  0  0  0  0  0  0  0  0  0
   -2.2056    0.6122    1.6570 O   0  0  0  0  0  0  0  0  0  0  0  0
    1.3252   -2.4207   -0.8156 O   0  0  0  0  0  0  0  0  0  0  0  0
    0.7478    0.1231    1.5685 O   0  0  0  0  0  0  0  0  0  0  0  0
   -0.7091    1.9804   -1.2006 O   0  0  0  0  0  0  0  0  0  0  0  0
   -3.2870   -0.7294    0.2408 O   0  0  0  0  0  0  0  0  0  0  0  0
    3.2781   -1.4582   -0.3421 O   0  0  0  0  0  0  0  0  0  0  0  0
   -0.0773   -1.4833    0.0400 N   0  0  0  0  0  0  0  0  0  0  0  0
    0.0772    1.4830   -0.0390 N   0  0  0  0  0  0  0  0  0  0  0  0
   -1.2639   -0.6409   -0.1926 C   0  0  0  0  0  0  0  0  0  0  0  0
   -1.1282    0.7700    0.4198 C   0  0  0  0  0  0  0  0  0  0  0  0
    1.1277   -0.7703   -0.4198 C   0  0  0  0  0  0  0  0  0  0  0  0
    1.2636    0.6407    0.1920 C   0  0  0  0  0  0  0  0  0  0  0  0
    0.7964   -1.2954    1.1908 H   0  0  0  0  0  0  0  0  0  0  0  0
   -0.7959    1.2948   -1.1920 H   0  0  0  0  0  0  0  0  0  0  0  0
    1.4953    0.0281   -1.3333 H   0  0  0  0  0  0  0  0  0  0  0  0
    2.4307    0.0372    0.1565 H   0  0  0  0  0  0  0  0  0  0  0  0
    0.6901    1.3203    1.3400 H   0  0  0  0  0  0  0  0  0  0  0  0
    1.1211    2.1570   -0.1466 H   0  0  0  0  0  0  0  0  0  0  0  0
   -1.1217   -2.1566    0.1464 H   0  0  0  0  0  0  0  0  0  0  0  0
   -0.6905   -1.3212   -1.3400 H   0  0  0  0  0  0  0  0  0  0  0  0
   -2.4299   -0.0365   -0.1559 H   0  0  0  0  0  0  0  0  0  0  0  0
   -1.4964   -0.0278    1.3343 H   0  0  0  0  0  0  0  0  0  0  0  0
    0.7779   -0.4707    1.3884 H   0  0  0  0  0  0  0  0  0  0  0  0
    1.2603    1.2131    1.1965 H   0  0  0  0  0  0  0  0  0  0  0  0
    0.1825   -1.1932   -1.6341 H   0  0  0  0  0  0  0  0  0  0  0  0
   -1.2692   -0.3109   -1.9339 H   0  0  0  0  0  0  0  0  0  0  0  0
   -0.4528    1.9606   -1.6629 H   0  0  0  0  0  0  0  0  0  0  0  0
   -2.7630    2.2488    0.2890 H   0  0  0  0  0  0  0  0  0  0  0  0
    4.1646   -0.0193    0.1172 H   0  0  0  0  0  0  0  0  0  0  0  0
   -1.2839   -3.0127    0.9060 H   0  0  0  0  0  0  0  0  0  0  0  0
    0.8377   -0.9096    1.4833 H   0  0  0  0  0  0  0  0  0  0  0  0
   -0.8371    0.9133   -1.4837 H   0  0  0  0  0  0  0  0  0  0  0  0
   -0.9588   -2.1503    0.6227 H   0  0  0  0  0  0  0  0  0  0  0  0
   -0.5235   -1.6541   -1.0085 H   0  0  0  0  0  0  0  0  0  0  0  0
   -2.4092   -0.2798   -0.2130 H   0  0  0  0  0  0  0  0  0  0  0  0
   -1.5522    0.1544    1.2601 H   0  0  0  0  0  0  0  0  0  0  0  0
    1.5501   -0.1534   -1.2629 H   0  0  0  0  0  0  0  0  0  0  0  0
    2.4095    0.2798    0.2094 H   0  0  0  0  0  0  0  0  0  0  0  0
    0.9586    2.1519   -0.6181 H   0  0  0  0  0  0  0  0  0  0  0  0
    0.5236    1.6488    1.0112 H   0  0  0  0  0  0  0  0  0  0  0  0
   -1.1663   -0.7058   -1.0686 H   0  0  0  0  0  0  0  0  0  0  0  0
   -0.7279   -1.6478    0.3859 H   0  0  0  0  0  0  0  0  0  0  0  0
    2.2714    0.6905   -0.4817 H   0  0  0  0  0  0  0  0  0  0  0  0
    1.1820    0.1832   -1.7671 H   0  0  0  0  0  0  0  0  0  0  0  0
    0.1899    0.6935    2.1412 H   0  0  0  0  0  0  0  0  0  0  0  0
   -0.8987    2.9445   -1.1930 H   0  0  0  0  0  0  0  0  0  0  0  0
   -4.0043   -0.3760    0.8075 H   0  0  0  0  0  0  0  0  0  0  0  0
    3.4748   -2.4170   -0.2966 H   0  0  0  0  0  0  0  0  0  0  0  0
    0.0112   -1.6244    1.0474 H   0  0  0  0  0  0  0  0  0  0  0  0
   -0.0109    1.6241   -1.0463 H   0  0  0  0  0  0  0  0  0  0  0  0
   -2.1393   -1.1397    0.2379 H   0  0  0  0  0  0  0  0  0  0  0  0
   -1.4445   -0.5628   -1.2721 H   0  0  0  0  0  0  0  0  0  0  0  0
   -1.1083    0.7002    1.5145 H   0  0  0  0  0  0  0  0  0  0  0  0
   -2.0103    1.3652    0.1580 H   0  0  0  0  0  0  0  0  0  0  0  0
    2.0095   -1.3654   -0.1582 H   0  0  0  0  0  0  0  0  0  0  0  0
    1.1091   -0.6999   -1.5145 H   0  0  0  0  0  0  0  0  0  0  0  0
    1.4449    0.5639    1.2710 H   0  0  0  0  0  0  0  0  0  0  0  0
    2.1393    1.1395   -0.2380 H   0  0  0  0  0  0  0  0  0  0  0  0
  2  6  1  0
  3  1  1  0
  4  3  1  0
  5  1  1  0
  6  5  1  0
  2  4  1  0
  8  7  1  0
  9  7  1  0
 10  7  1  0
 11  9  1  0
 12  8  1  0
 13 10  2  0
 14 12  2  0
 15 11  2  0
 16  7  1  0
 17 10  1  0
 18 12  1  0
 19 11  1  0
 21 25  1  0
 22 20  1  0
 23 22  1  0
 24 20  1  0
 25 24  1  0
 21 23  1  0
 27 26  1  0
 28 26  1  0
 29 26  1  0
 30 28  1  0
 31 27  1  0
 32 29  2  0
 33 31  2  0
 34 30  2  0
 35 26  1  0
 36 29  1  0
 37 31  1  0
 38 30  1  0
 40 44  1  0
 41 39  1  0
 42 41  1  0
 43 39  1  0
 44 43  1  0
 40 42  1  0
  1 45  1  0
  2 46  1  0
  3 47  1  0
  3 48  1  0
  4 49  1  0
  4 50  1  0
  5 51  1  0
  5 52  1  0
  6 53  1  0
  6 54  1  0
  8 55  1  0
  8 56  1  0
  9 57  1  0
  9 58  1  0
 16 59  1  0
 17 60  1  0
 18 61  1  0
 19 62  1  0
 20 63  1  0
 21 64  1  0
 22 65  1  0
 22 66  1  0
 23 67  1  0
 23 68  1  0
 24 69  1  0
 24 70  1  0
 25 71  1  0
 25 72  1  0
 27 73  1  0
 27 74  1  0
 28 75  1  0
 28 76  1  0
 35 77  1  0
 36 78  1  0
 37 79  1  0
 38 80  1  0
 39 81  1  0
 40 82  1  0
 41 83  1  0
 41 84  1  0
 42 85  1  0
 42 86  1  0
 43 87  1  0
 43 88  1  0
 44 89  1  0
 44 90  1  0
M  END
$$$$
