
     RDKit          3D

 90 88  0  0  0  0  0  0  0  0999 V2000
   -0.1392    1.2699   -0.6635 N   0  0  0  0  0  0  0  0  0  0  0  0
    0.1278   -1.4178    0.5653 N   0  0  0  0  0  0  0  0  0  0  0  0
    1.1625    0.7240   -0.2549 C   0  0  0  0  0  0  0  0  0  0  0  0
    1.1940   -0.8199   -0.2599 C   0  0  0  0  0  0  0  0  0  0  0  0
   -1.2216    0.6584    0.1200 C   0  0  0  0  0  0  0  0  0  0  0  0
   -1.1706   -0.8848    0.1124 C   0  0  0  0  0  0  0  0  0  0  0  0
   -0.2810   -0.8114    0.1375 C   0  0  0  0  0  0  0  0  0  0  0  0
    0.7589   -0.5532   -0.9616 C   0  0  0  0  0  0  0  0  0  0  0  0
   -1.1011    0.3787    0.6588 C   0  0  0  0  0  0  0  0  0  0  0  0
    0.4367   -1.4442    1.3444 C   0  0  0  0  0  0  0  0  0  0  0  0
   -1.8143    1.1081   -0.4398 C   0  0  0  0  0  0  0  0  0  0  0  0
    1.6365    0.6376   -0.7130 C   0  0  0  0  0  0  0  0  0  0  0  0
    0.2489   -2.5468    1.8323 O   0  0  0  0  0  0  0  0  0  0  0  0
    1.2638    1.7754   -0.4832 O   0  0  0  0  0  0  0  0  0  0  0  0
   -1.9780    0.7121   -1.5826 O   0  0  0  0  0  0  0  0  0  0  0  0
   -1.2082   -1.7891   -0.3839 O   0  0  0  0  0  0  0  0  0  0  0  0
    1.3696   -0.6373    1.8925 O   0  0  0  0  0  0  0  0  0  0  0  0
    2.9473    0.3496   -0.8087 O   0  0  0  0  0  0  0  0  0  0  0  0
   -2.3351    2.2784   -0.0288 O   0  0  0  0  0  0  0  0  0  0  0  0
   -0.4981    1.1016    0.7812 N   0  0  0  0  0  0  0  0  0  0  0  0
    0.5720   -1.2389   -0.6961 N   0  0  0  0  0  0  0  0  0  0  0  0
   -1.3767    0.0782    0.1983 C   0  0  0  0  0  0  0  0  0  0  0  0
   -0.6897   -1.2984    0.0657 C   0  0  0  0  0  0  0  0  0  0  0  0
    0.7819    1.1512    0.0612 C   0  0  0  0  0  0  0  0  0  0  0  0
    1.4515   -0.2342   -0.0698 C   0  0  0  0  0  0  0  0  0  0  0  0
   -0.1037   -0.1844    0.5834 C   0  0  0  0  0  0  0  0  0  0  0  0
    0.7850    0.4622   -0.4885 C   0  0  0  0  0  0  0  0  0  0  0  0
   -1.6008    0.0816    0.3755 C   0  0  0  0  0  0  0  0  0  0  0  0
    0.0575   -1.7158    0.5860 C   0  0  0  0  0  0  0  0  0  0  0  0
   -1.9505    1.5408    0.3615 C   0  0  0  0  0  0  0  0  0  0  0  0
    2.1980   -0.0430   -0.4232 C   0  0  0  0  0  0  0  0  0  0  0  0
    0.3092   -2.4140    1.5546 O   0  0  0  0  0  0  0  0  0  0  0  0
    2.7429   -0.5530    0.5412 O   0  0  0  0  0  0  0  0  0  0  0  0
   -1.5003    2.3865   -0.3935 O   0  0  0  0  0  0  0  0  0  0  0  0
    0.2502    0.3393    1.8730 O   0  0  0  0  0  0  0  0  0  0  0  0
   -0.1138   -2.2795   -0.6266 O   0  0  0  0  0  0  0  0  0  0  0  0
    2.8723    0.1595   -1.5700 O   0  0  0  0  0  0  0  0  0  0  0  0
   -2.9011    1.8632    1.2592 O   0  0  0  0  0  0  0  0  0  0  0  0
   -0.2466    1.3257    0.5391 N   0  0  0  0  0  0  0  0  0  0  0  0
    0.2603   -1.3929    0.3178 N   0  0  0  0  0  0  0  0  0  0  0  0
    0.9792    0.9923   -0.2070 C   0  0  0  0  0  0  0  0  0  0  0  0
    1.3627   -0.5048   -0.1034 C   0  0  0  0  0  0  0  0  0  0  0  0
   -1.3639    0.5119    0.0190 C   0  0  0  0  0  0  0  0  0  0  0  0
   -0.9880   -0.9504   -0.3275 C   0  0  0  0  0  0  0  0  0  0  0  0
   -0.1459    2.2793   -0.5284 H   0  0  0  0  0  0  0  0  0  0  0  0
    0.2709   -1.1182    1.5291 H   0  0  0  0  0  0  0  0  0  0  0  0
    1.9323    1.1007   -0.9370 H   0  0  0  0  0  0  0  0  0  0  0  0
    1.4134    1.0926    0.7479 H   0  0  0  0  0  0  0  0  0  0  0  0
    2.1630   -1.1625    0.1193 H   0  0  0  0  0  0  0  0  0  0  0  0
    1.1086   -1.1927   -1.2883 H   0  0  0  0  0  0  0  0  0  0  0  0
   -2.1826    0.9879   -0.2894 H   0  0  0  0  0  0  0  0  0  0  0  0
   -1.1708    1.0204    1.1545 H   0  0  0  0  0  0  0  0  0  0  0  0
   -1.3853   -1.2614   -0.8952 H   0  0  0  0  0  0  0  0  0  0  0  0
   -1.9565   -1.2757    0.7681 H   0  0  0  0  0  0  0  0  0  0  0  0
    0.2889   -0.4145   -1.9423 H   0  0  0  0  0  0  0  0  0  0  0  0
    1.3899   -1.4450   -1.0785 H   0  0  0  0  0  0  0  0  0  0  0  0
   -0.4730    1.0911    1.2043 H   0  0  0  0  0  0  0  0  0  0  0  0
   -1.8738    0.0177    1.3502 H   0  0  0  0  0  0  0  0  0  0  0  0
   -1.6460   -1.3989   -1.1669 H   0  0  0  0  0  0  0  0  0  0  0  0
    1.7266   -1.1733    2.6342 H   0  0  0  0  0  0  0  0  0  0  0  0
    3.4007    1.2019   -0.6401 H   0  0  0  0  0  0  0  0  0  0  0  0
   -2.7572    2.6631   -0.8249 H   0  0  0  0  0  0  0  0  0  0  0  0
   -0.9535    2.0115    0.7350 H   0  0  0  0  0  0  0  0  0  0  0  0
    0.3535   -0.9201   -1.6392 H   0  0  0  0  0  0  0  0  0  0  0  0
   -1.7183    0.4128   -0.7895 H   0  0  0  0  0  0  0  0  0  0  0  0
   -2.2659   -0.0246    0.8297 H   0  0  0  0  0  0  0  0  0  0  0  0
   -0.4927   -1.7150    1.0613 H   0  0  0  0  0  0  0  0  0  0  0  0
   -1.3700   -1.9946   -0.4370 H   0  0  0  0  0  0  0  0  0  0  0  0
    0.6200    1.5755   -0.9379 H   0  0  0  0  0  0  0  0  0  0  0  0
    1.4596    1.8284    0.5928 H   0  0  0  0  0  0  0  0  0  0  0  0
    2.3605   -0.1403   -0.6740 H   0  0  0  0  0  0  0  0  0  0  0  0
    1.7659   -0.5930    0.9183 H   0  0  0  0  0  0  0  0  0  0  0  0
    0.3908    0.2423   -1.4876 H   0  0  0  0  0  0  0  0  0  0  0  0
    0.8450    1.5471   -0.3526 H   0  0  0  0  0  0  0  0  0  0  0  0
   -2.1705   -0.3958    1.1845 H   0  0  0  0  0  0  0  0  0  0  0  0
   -1.9688   -0.3511   -0.5625 H   0  0  0  0  0  0  0  0  0  0  0  0
    1.0784   -0.1113    2.1445 H   0  0  0  0  0  0  0  0  0  0  0  0
    0.0193   -3.2385   -0.4602 H   0  0  0  0  0  0  0  0  0  0  0  0
    3.7792   -0.1665   -1.3912 H   0  0  0  0  0  0  0  0  0  0  0  0
   -3.0183    2.8304    1.1535 H   0  0  0  0  0  0  0  0  0  0  0  0
   -0.0926    1.0564    1.5106 H   0  0  0  0  0  0  0  0  0  0  0  0
    0.1382   -1.2809    1.3238 H   0  0  0  0  0  0  0  0  0  0  0  0
    1.8036    1.6080    0.1694 H   0  0  0  0  0  0  0  0  0  0  0  0
    0.8396    1.2652   -1.2604 H   0  0  0  0  0  0  0  0  0  0  0  0
    1.7511   -0.8462   -1.0700 H   0  0  0  0  0  0  0  0  0  0  0  0
    2.1778   -0.6209    0.6205 H   0  0  0  0  0  0  0  0  0  0  0  0
   -1.7812    0.9986   -0.8704 H   0  0  0  0  0  0  0  0  0  0  0  0
   -2.1555    0.5128    0.7772 H   0  0  0  0  0  0  0  0  0  0  0  0
   -1.8020   -1.6179   -0.0245 H   0  0  0  0  0  0  0  0  0  0  0  0
   -0.8828   -1.0570   -1.4142 H   0  0  0  0  0  0  0  0  0  0  0  0
  2  6  1  0
  3  1  1  0
  4  3  1  0
  5  1  1  0
  6  5  1  0
  2  4  1  0
  8  7  1  0
  9  7  1  0
 10  7  1  0
 11  9  1  0
 12  8  1  0
 13 10  2  0
 14 12  2  0
 15 11  2  0
 16  7  1  0
 17 10  1  0
 18 12  1  0
 19 11  1  0
 21 25  1  0
 22 20  1  0
 23 22  1  0
 24 20  1  0
 25 24  1  0
 21 23  1  0
 27 26  1  0
 28 26  1  0
 29 26  1  0
 30 28  1  0
 31 27  1  0
 32 29  2  0
 33 31  2  0
 34 30  2  0
 35 26  1  0
 36 29  1  0
 37 31  1  0
 38 30  1  0
 40 44  1  0
 41 39  1  0
 42 41  1  0
 43 39  1  0
 44 43  1  0
 40 42  1  0
  1 45  1  0
  2 46  1  0
  3 47  1  0
  3 48  1  0
  4 49  1  0
  4 50  1  0
  5 51  1  0
  5 52  1  0
  6 53  1  0
  6 54  1  0
  8 55  1  0
  8 56  1  0
  9 57  1  0
  9 58  1  0
 16 59  1  0
 17 60  1  0
 18 61  1  0
 19 62  1  0
 20 63  1  0
 21 64  1  0
 22 65  1  0
 22 66  1  0
 23 67  1  0
 23 68  1  0
 24 69  1  0
 24 70  1  0
 25 71  1  0
 25 72  1  0
 27 73  1  0
 27 74  1  0
 28 75  1  0
 28 76  1  0
 35 77  1  0
 36 78  1  0
 37 79  1  0
 38 80  1  0
 39 81  1  0
 40 82  1  0
 41 83  1  0
 41 84  1  0
 42 85  1  0
 42 86  1  0
 43 87  1  0
 43 88  1  0
 44 89  1  0
 44 90  1  0
M  END
$$$$
