
     RDKit          3D

 90 88  0  0  0  0  0  0  0  0999 V2000
   -0.8439    1.2161    0.1370 N   0  0  0  0  0  0  0  0  0  0  0  0
    0.8430   -1.2153   -0.1399 N   0  0  0  0  0  0  0  0  0  0  0  0
   -1.3257   -0.1234    0.5182 C   0  0  0  0  0  0  0  0  0  0  0  0
   -0.6249   -1.2592   -0.2579 C   0  0  0  0  0  0  0  0  0  0  0  0
    0.6242    1.2606    0.2583 C   0  0  0  0  0  0  0  0  0  0  0  0
    1.3266    0.1246   -0.5162 C   0  0  0  0  0  0  0  0  0  0  0  0
   -0.3095   -0.2162    0.0392 C   0  0  0  0  0  0  0  0  0  0  0  0
    1.0871    0.4213    0.0635 C   0  0  0  0  0  0  0  0  0  0  0  0
   -1.3184    0.4993    0.9447 C   0  0  0  0  0  0  0  0  0  0  0  0
   -0.2223   -1.6554    0.5796 C   0  0  0  0  0  0  0  0  0  0  0  0
   -1.4661    1.9557    0.6220 C   0  0  0  0  0  0  0  0  0  0  0  0
    2.1198   -0.4478   -0.6004 C   0  0  0  0  0  0  0  0  0  0  0  0
    0.2430   -1.9967    1.6551 O   0  0  0  0  0  0  0  0  0  0  0  0
    1.9173   -1.3980   -1.3375 O   0  0  0  0  0  0  0  0  0  0  0  0
   -0.6201    2.8180    0.7926 O   0  0  0  0  0  0  0  0  0  0  0  0
   -0.8235   -0.1761   -1.2986 O   0  0  0  0  0  0  0  0  0  0  0  0
   -0.7187   -2.5702   -0.2802 O   0  0  0  0  0  0  0  0  0  0  0  0
    3.3748   -0.0509   -0.3213 O   0  0  0  0  0  0  0  0  0  0  0  0
   -2.6773    2.2717    0.1317 O   0  0  0  0  0  0  0  0  0  0  0  0
    0.8733   -1.1051    0.6025 N   0  0  0  0  0  0  0  0  0  0  0  0
   -0.8184    0.9612   -0.6934 N   0  0  0  0  0  0  0  0  0  0  0  0
   -0.5522   -1.3310    0.2991 C   0  0  0  0  0  0  0  0  0  0  0  0
   -1.3702   -0.0219    0.2490 C   0  0  0  0  0  0  0  0  0  0  0  0
    1.4157   -0.1438   -0.3755 C   0  0  0  0  0  0  0  0  0  0  0  0
    0.6124    1.1735   -0.4343 C   0  0  0  0  0  0  0  0  0  0  0  0
   -0.3060   -0.2391   -0.2577 C   0  0  0  0  0  0  0  0  0  0  0  0
   -1.3011   -0.4036    0.9003 C   0  0  0  0  0  0  0  0  0  0  0  0
    0.8927    0.6536    0.0910 C   0  0  0  0  0  0  0  0  0  0  0  0
    0.1436   -1.6627   -0.6289 C   0  0  0  0  0  0  0  0  0  0  0  0
    1.9676    0.6000   -0.9581 C   0  0  0  0  0  0  0  0  0  0  0  0
   -1.7834    0.9043    1.4502 C   0  0  0  0  0  0  0  0  0  0  0  0
   -0.2062   -2.2845   -1.6196 O   0  0  0  0  0  0  0  0  0  0  0  0
   -1.1192    1.6949    2.0993 O   0  0  0  0  0  0  0  0  0  0  0  0
    1.8972    0.0864   -2.0610 O   0  0  0  0  0  0  0  0  0  0  0  0
   -1.0236    0.3513   -1.3532 O   0  0  0  0  0  0  0  0  0  0  0  0
    0.9847   -2.2203    0.2635 O   0  0  0  0  0  0  0  0  0  0  0  0
   -3.0791    1.1485    1.1890 O   0  0  0  0  0  0  0  0  0  0  0  0
    3.0904    1.2293   -0.5649 O   0  0  0  0  0  0  0  0  0  0  0  0
   -0.7365   -1.2069   -0.4580 N   0  0  0  0  0  0  0  0  0  0  0  0
    0.7357    1.2072    0.4576 N   0  0  0  0  0  0  0  0  0  0  0  0
    0.7259   -1.2016   -0.2715 C   0  0  0  0  0  0  0  0  0  0  0  0
    1.3482    0.2022   -0.4294 C   0  0  0  0  0  0  0  0  0  0  0  0
   -1.3476   -0.2033    0.4309 C   0  0  0  0  0  0  0  0  0  0  0  0
   -0.7262    1.2009    0.2711 C   0  0  0  0  0  0  0  0  0  0  0  0
   -1.0783    1.3610   -0.8468 H   0  0  0  0  0  0  0  0  0  0  0  0
    1.0806   -1.3663    0.8413 H   0  0  0  0  0  0  0  0  0  0  0  0
   -2.4049   -0.1733    0.3369 H   0  0  0  0  0  0  0  0  0  0  0  0
   -1.1835   -0.2657    1.5968 H   0  0  0  0  0  0  0  0  0  0  0  0
   -0.9015   -1.2128   -1.3185 H   0  0  0  0  0  0  0  0  0  0  0  0
   -0.9796   -2.2258    0.1163 H   0  0  0  0  0  0  0  0  0  0  0  0
    0.9000    1.2120    1.3193 H   0  0  0  0  0  0  0  0  0  0  0  0
    0.9782    2.2274   -0.1172 H   0  0  0  0  0  0  0  0  0  0  0  0
    1.1838    0.2670   -1.5943 H   0  0  0  0  0  0  0  0  0  0  0  0
    2.4060    0.1731   -0.3334 H   0  0  0  0  0  0  0  0  0  0  0  0
    1.0914    1.3735   -0.4775 H   0  0  0  0  0  0  0  0  0  0  0  0
    1.4057    0.5855    1.1001 H   0  0  0  0  0  0  0  0  0  0  0  0
   -1.0384    0.4278    2.0026 H   0  0  0  0  0  0  0  0  0  0  0  0
   -2.3036    0.0245    0.8570 H   0  0  0  0  0  0  0  0  0  0  0  0
   -0.5030   -0.9927   -1.7372 H   0  0  0  0  0  0  0  0  0  0  0  0
   -0.5655   -3.4338    0.1581 H   0  0  0  0  0  0  0  0  0  0  0  0
    3.9511   -0.6710   -0.8135 H   0  0  0  0  0  0  0  0  0  0  0  0
   -2.6238    3.2314   -0.0577 H   0  0  0  0  0  0  0  0  0  0  0  0
    0.9344   -0.6822    1.5287 H   0  0  0  0  0  0  0  0  0  0  0  0
   -1.3186    1.8442   -0.6008 H   0  0  0  0  0  0  0  0  0  0  0  0
   -0.9728   -1.9898    1.0667 H   0  0  0  0  0  0  0  0  0  0  0  0
   -0.6396   -1.8645   -0.6561 H   0  0  0  0  0  0  0  0  0  0  0  0
   -1.4145    0.4213    1.2519 H   0  0  0  0  0  0  0  0  0  0  0  0
   -2.3993   -0.2541   -0.0459 H   0  0  0  0  0  0  0  0  0  0  0  0
    1.4380   -0.6114   -1.3676 H   0  0  0  0  0  0  0  0  0  0  0  0
    2.4550    0.0783   -0.1077 H   0  0  0  0  0  0  0  0  0  0  0  0
    1.0231    1.8075   -1.2274 H   0  0  0  0  0  0  0  0  0  0  0  0
    0.7336    1.7179    0.5105 H   0  0  0  0  0  0  0  0  0  0  0  0
   -0.8677   -0.9651    1.7380 H   0  0  0  0  0  0  0  0  0  0  0  0
   -2.1742   -0.9820    0.5664 H   0  0  0  0  0  0  0  0  0  0  0  0
    0.5841    1.7020    0.1607 H   0  0  0  0  0  0  0  0  0  0  0  0
    1.3357    0.3389    1.0424 H   0  0  0  0  0  0  0  0  0  0  0  0
   -0.6673   -0.0460   -2.1770 H   0  0  0  0  0  0  0  0  0  0  0  0
    1.1854   -3.1021   -0.1189 H   0  0  0  0  0  0  0  0  0  0  0  0
   -3.2473    2.0341    1.5720 H   0  0  0  0  0  0  0  0  0  0  0  0
    3.6937    1.1623   -1.3336 H   0  0  0  0  0  0  0  0  0  0  0  0
   -0.9255   -0.9236   -1.4215 H   0  0  0  0  0  0  0  0  0  0  0  0
    0.9278    0.9289    1.4208 H   0  0  0  0  0  0  0  0  0  0  0  0
    0.9625   -1.6045    0.7219 H   0  0  0  0  0  0  0  0  0  0  0  0
    1.1760   -1.8815   -1.0038 H   0  0  0  0  0  0  0  0  0  0  0  0
    2.4215    0.1498   -0.2137 H   0  0  0  0  0  0  0  0  0  0  0  0
    1.2514    0.5359   -1.4702 H   0  0  0  0  0  0  0  0  0  0  0  0
   -2.4203   -0.1506    0.2163 H   0  0  0  0  0  0  0  0  0  0  0  0
   -1.2511   -0.5371    1.4716 H   0  0  0  0  0  0  0  0  0  0  0  0
   -0.9637    1.6017   -0.7223 H   0  0  0  0  0  0  0  0  0  0  0  0
   -1.1780    1.8825    1.0004 H   0  0  0  0  0  0  0  0  0  0  0  0
  2  6  1  0
  3  1  1  0
  4  3  1  0
  5  1  1  0
  6  5  1  0
  2  4  1  0
  8  7  1  0
  9  7  1  0
 10  7  1  0
 11  9  1  0
 12  8  1  0
 13 10  2  0
 14 12  2  0
 15 11  2  0
 16  7  1  0
 17 10  1  0
 18 12  1  0
 19 11  1  0
 21 25  1  0
 22 20  1  0
 23 22  1  0
 24 20  1  0
 25 24  1  0
 21 23  1  0
 27 26  1  0
 28 26  1  0
 29 26  1  0
 30 28  1  0
 31 27  1  0
 32 29  2  0
 33 31  2  0
 34 30  2  0
 35 26  1  0
 36 29  1  0
 37 31  1  0
 38 30  1  0
 40 44  1  0
 41 39  1  0
 42 41  1  0
 43 39  1  0
 44 43  1  0
 40 42  1  0
  1 45  1  0
  2 46  1  0
  3 47  1  0
  3 48  1  0
  4 49  1  0
  4 50  1  0
  5 51  1  0
  5 52  1  0
  6 53  1  0
  6 54  1  0
  8 55  1  0
  8 56  1  0
  9 57  1  0
  9 58  1  0
 16 59  1  0
 17 60  1  0
 18 61  1  0
 19 62  1  0
 20 63  1  0
 21 64  1  0
 22 65  1  0
 22 66  1  0
 23 67  1  0
 23 68  1  0
 24 69  1  0
 24 70  1  0
 25 71  1  0
 25 72  1  0
 27 73  1  0
 27 74  1  0
 28 75  1  0
 28 76  1  0
 35 77  1  0
 36 78  1  0
 37 79  1  0
 38 80  1  0
 39 81  1  0
 40 82  1  0
 41 83  1  0
 41 84  1  0
 42 85  1  0
 42 86  1  0
 43 87  1  0
 43 88  1  0
 44 89  1  0
 44 90  1  0
M  END
$$$$
