
     RDKit          3D

 92 90  0  0  0  0  0  0  0  0999 V2000
    0.7627   -0.5697   -0.8502 C   0  0  0  0  0  0  0  0  0  0  0  0
    3.0965   -1.0331   -0.1633 N   0  0  0  0  0  0  0  0  0  0  0  0
   -0.6370   -0.1966   -0.4213 C   0  0  0  0  0  0  0  0  0  0  0  0
    1.8064   -0.4887    0.2848 C   0  0  1  0  0  0  0  0  0  0  0  0
   -1.3823   -1.0557    0.3982 C   0  0  0  0  0  0  0  0  0  0  0  0
   -1.2094    1.0145   -0.8330 C   0  0  0  0  0  0  0  0  0  0  0  0
    2.0339    0.9456    0.7636 C   0  0  0  0  0  0  0  0  0  0  0  0
   -2.6731   -0.7082    0.7997 C   0  0  0  0  0  0  0  0  0  0  0  0
   -2.5005    1.3601   -0.4303 C   0  0  0  0  0  0  0  0  0  0  0  0
   -3.2316    0.4994    0.3858 C   0  0  0  0  0  0  0  0  0  0  0  0
    0.8655    0.9307   -0.3304 C   0  0  0  0  0  0  0  0  0  0  0  0
    3.0860    0.7133    0.7103 N   0  0  0  0  0  0  0  0  0  0  0  0
   -0.5911    0.5270   -0.3230 C   0  0  0  0  0  0  0  0  0  0  0  0
    1.7362    0.1315    0.6619 C   0  0  2  0  0  0  0  0  0  0  0  0
   -1.1327   -0.2117   -1.3837 C   0  0  0  0  0  0  0  0  0  0  0  0
   -1.4200    0.8821    0.7501 C   0  0  0  0  0  0  0  0  0  0  0  0
    1.8424   -1.3476    0.2853 C   0  0  0  0  0  0  0  0  0  0  0  0
   -2.7629    0.5025    0.7632 C   0  0  0  0  0  0  0  0  0  0  0  0
   -2.4761   -0.5907   -1.3686 C   0  0  0  0  0  0  0  0  0  0  0  0
   -3.2904   -0.2343   -0.2954 C   0  0  0  0  0  0  0  0  0  0  0  0
    0.8180   -0.4549    0.3687 C   0  0  0  0  0  0  0  0  0  0  0  0
   -1.5404    0.4870    0.0882 C   0  0  0  0  0  0  0  0  0  0  0  0
    1.6302    0.7106   -0.1229 C   0  0  0  0  0  0  0  0  0  0  0  0
   -0.5059   -0.5458   -0.3879 C   0  0  2  0  0  0  0  0  0  0  0  0
   -2.7498    0.4044   -0.0824 O   0  0  0  0  0  0  0  0  0  0  0  0
    1.5159    1.2896   -1.1901 O   0  0  0  0  0  0  0  0  0  0  0  0
   -1.0778   -1.9035   -0.1934 N   0  0  0  0  0  0  0  0  0  0  0  0
   -1.0259    1.5710    0.6965 O   0  0  0  0  0  0  0  0  0  0  0  0
    2.6017    1.0568    0.7443 O   0  0  0  0  0  0  0  0  0  0  0  0
   -0.7053    1.1270    0.3139 C   0  0  0  0  0  0  0  0  0  0  0  0
   -3.1437    0.7868    0.5822 N   0  0  0  0  0  0  0  0  0  0  0  0
    0.6605    0.4906    0.2050 C   0  0  0  0  0  0  0  0  0  0  0  0
   -1.8702    0.1141    0.2865 C   0  0  1  0  0  0  0  0  0  0  0  0
    1.1952   -0.2332    1.2798 C   0  0  0  0  0  0  0  0  0  0  0  0
    1.4114    0.6117   -0.9721 C   0  0  0  0  0  0  0  0  0  0  0  0
   -2.0018   -0.5830   -1.0681 C   0  0  0  0  0  0  0  0  0  0  0  0
    2.4545   -0.8261    1.1775 C   0  0  0  0  0  0  0  0  0  0  0  0
    2.6707    0.0179   -1.0724 C   0  0  0  0  0  0  0  0  0  0  0  0
    3.1916   -0.7009    0.0017 C   0  0  0  0  0  0  0  0  0  0  0  0
   -0.0469    0.4348    0.1284 S   0  0  0  0  0  0  0  0  0  0  0  0
   -0.5980    0.6998    1.4329 O   0  0  0  0  0  0  0  0  0  0  0  0
    0.3605    1.4627   -0.7951 O   0  0  0  0  0  0  0  0  0  0  0  0
    1.2115   -0.5452    0.3005 O   0  0  0  0  0  0  0  0  0  0  0  0
   -1.0899   -0.5298   -0.6167 O   0  0  0  0  0  0  0  0  0  0  0  0
    0.7252   -1.5931   -1.2486 H   0  0  0  0  0  0  0  0  0  0  0  0
    1.0747    0.0622   -1.6926 H   0  0  0  0  0  0  0  0  0  0  0  0
    3.4412   -0.4951   -0.9579 H   0  0  0  0  0  0  0  0  0  0  0  0
    2.9683   -1.9869   -0.4992 H   0  0  0  0  0  0  0  0  0  0  0  0
    1.4740   -1.0895    1.1394 H   0  0  0  0  0  0  0  0  0  0  0  0
   -0.9615   -2.0027    0.7291 H   0  0  0  0  0  0  0  0  0  0  0  0
   -0.6525    1.6998   -1.4679 H   0  0  0  0  0  0  0  0  0  0  0  0
    2.3441    1.6002   -0.0587 H   0  0  0  0  0  0  0  0  0  0  0  0
    2.8119    0.9817    1.5349 H   0  0  0  0  0  0  0  0  0  0  0  0
    1.1238    1.3642    1.2051 H   0  0  0  0  0  0  0  0  0  0  0  0
   -3.2428   -1.3801    1.4362 H   0  0  0  0  0  0  0  0  0  0  0  0
   -2.9356    2.3023   -0.7532 H   0  0  0  0  0  0  0  0  0  0  0  0
   -4.2364    0.7695    0.6994 H   0  0  0  0  0  0  0  0  0  0  0  0
    1.2709    0.8378   -1.3470 H   0  0  0  0  0  0  0  0  0  0  0  0
    0.9155    2.0018   -0.0901 H   0  0  0  0  0  0  0  0  0  0  0  0
    3.5362    0.6118   -0.1991 H   0  0  0  0  0  0  0  0  0  0  0  0
    3.6594    0.1831    1.3661 H   0  0  0  0  0  0  0  0  0  0  0  0
    1.3084    0.2057    1.6686 H   0  0  0  0  0  0  0  0  0  0  0  0
   -0.5111   -0.4987   -2.2287 H   0  0  0  0  0  0  0  0  0  0  0  0
   -1.0227    1.4607    1.5815 H   0  0  0  0  0  0  0  0  0  0  0  0
    0.8652   -1.8387    0.3319 H   0  0  0  0  0  0  0  0  0  0  0  0
    2.5038   -1.8816    0.9769 H   0  0  0  0  0  0  0  0  0  0  0  0
    2.2391   -1.4768   -0.7279 H   0  0  0  0  0  0  0  0  0  0  0  0
   -3.3979    0.7841    1.5991 H   0  0  0  0  0  0  0  0  0  0  0  0
   -2.8874   -1.1637   -2.1954 H   0  0  0  0  0  0  0  0  0  0  0  0
   -4.3364   -0.5286   -0.2851 H   0  0  0  0  0  0  0  0  0  0  0  0
    0.6451   -0.3464    1.4460 H   0  0  0  0  0  0  0  0  0  0  0  0
    1.4253   -1.3527    0.2015 H   0  0  0  0  0  0  0  0  0  0  0  0
   -0.3670   -0.3805   -1.4627 H   0  0  0  0  0  0  0  0  0  0  0  0
   -2.0396   -1.8938   -0.5465 H   0  0  0  0  0  0  0  0  0  0  0  0
   -0.5708   -2.5684   -0.7761 H   0  0  0  0  0  0  0  0  0  0  0  0
   -1.8143    2.1161    0.9047 H   0  0  0  0  0  0  0  0  0  0  0  0
    3.0552    1.8104    0.3120 H   0  0  0  0  0  0  0  0  0  0  0  0
   -0.7301    1.6974    1.2527 H   0  0  0  0  0  0  0  0  0  0  0  0
   -0.8347    1.8698   -0.4847 H   0  0  0  0  0  0  0  0  0  0  0  0
   -3.0762    1.2705    1.4770 H   0  0  0  0  0  0  0  0  0  0  0  0
   -3.3253    1.5059   -0.1173 H   0  0  0  0  0  0  0  0  0  0  0  0
   -1.7157   -0.6519    1.0554 H   0  0  0  0  0  0  0  0  0  0  0  0
    0.6333   -0.3394    2.2052 H   0  0  0  0  0  0  0  0  0  0  0  0
    1.0196    1.1667   -1.8214 H   0  0  0  0  0  0  0  0  0  0  0  0
   -1.1139   -1.1830   -1.2922 H   0  0  0  0  0  0  0  0  0  0  0  0
   -2.1365    0.1393   -1.8812 H   0  0  0  0  0  0  0  0  0  0  0  0
   -2.8610   -1.2634   -1.0760 H   0  0  0  0  0  0  0  0  0  0  0  0
    2.8604   -1.3861    2.0159 H   0  0  0  0  0  0  0  0  0  0  0  0
    3.2453    0.1157   -1.9897 H   0  0  0  0  0  0  0  0  0  0  0  0
    4.1718   -1.1634   -0.0775 H   0  0  0  0  0  0  0  0  0  0  0  0
    1.7324   -0.4948   -0.5276 H   0  0  0  0  0  0  0  0  0  0  0  0
   -1.5696   -1.0275    0.0776 H   0  0  0  0  0  0  0  0  0  0  0  0
  4  2  1  0
  3  1  1  0
  4  1  1  0
  5  3  2  0
  6  3  1  0
  4  7  1  0
  8  5  1  0
  9  6  2  0
 10  8  2  0
  9 10  1  0
 12 14  1  0
 13 11  1  0
 14 11  1  0
 15 13  2  0
 16 13  1  0
 17 14  1  0
 18 16  2  0
 19 15  1  0
 20 18  1  0
 19 20  2  0
 22 24  1  0
 23 21  1  0
 24 21  1  0
 25 22  2  0
 26 23  2  0
 27 24  1  0
 28 22  1  0
 29 23  1  0
 33 31  1  0
 32 30  1  0
 33 30  1  0
 34 32  2  0
 35 32  1  0
 33 36  1  0
 37 34  1  0
 38 35  2  0
 39 37  2  0
 38 39  1  0
 41 40  2  0
 42 40  2  0
 43 40  1  0
 44 40  1  0
  1 45  1  0
  1 46  1  0
  2 47  1  0
  2 48  1  0
  4 49  1  1
  5 50  1  0
  6 51  1  0
  7 52  1  0
  7 53  1  0
  7 54  1  0
  8 55  1  0
  9 56  1  0
 10 57  1  0
 11 58  1  0
 11 59  1  0
 12 60  1  0
 12 61  1  0
 14 62  1  1
 15 63  1  0
 16 64  1  0
 17 65  1  0
 17 66  1  0
 17 67  1  0
 18 68  1  0
 19 69  1  0
 20 70  1  0
 21 71  1  0
 21 72  1  0
 24 73  1  6
 27 74  1  0
 27 75  1  0
 28 76  1  0
 29 77  1  0
 30 78  1  0
 30 79  1  0
 31 80  1  0
 31 81  1  0
 33 82  1  1
 34 83  1  0
 35 84  1  0
 36 85  1  0
 36 86  1  0
 36 87  1  0
 37 88  1  0
 38 89  1  0
 39 90  1  0
 43 91  1  0
 44 92  1  0
M  END
$$$$
