
     RDKit          3D

 92 90  0  0  0  0  0  0  0  0999 V2000
   -0.8071   -0.5510   -0.7682 C   0  0  0  0  0  0  0  0  0  0  0  0
   -1.5212    1.6502    0.1592 N   0  0  0  0  0  0  0  0  0  0  0  0
    0.6429   -0.5242   -0.3388 C   0  0  0  0  0  0  0  0  0  0  0  0
   -1.7494    0.1998    0.1971 C   0  0  1  0  0  0  0  0  0  0  0  0
    1.5467    0.3629   -0.9391 C   0  0  0  0  0  0  0  0  0  0  0  0
    1.1002   -1.3770    0.6752 C   0  0  0  0  0  0  0  0  0  0  0  0
   -3.2089   -0.0729   -0.1659 C   0  0  0  0  0  0  0  0  0  0  0  0
    2.8837    0.3885   -0.5398 C   0  0  0  0  0  0  0  0  0  0  0  0
    2.4373   -1.3484    1.0751 C   0  0  0  0  0  0  0  0  0  0  0  0
    3.3283   -0.4656    0.4676 C   0  0  0  0  0  0  0  0  0  0  0  0
   -0.7594    0.7324    0.7333 C   0  0  0  0  0  0  0  0  0  0  0  0
   -3.0779    1.0118   -0.0535 N   0  0  0  0  0  0  0  0  0  0  0  0
    0.6488    0.2959    0.4008 C   0  0  0  0  0  0  0  0  0  0  0  0
   -1.7939    0.3596   -0.3481 C   0  0  2  0  0  0  0  0  0  0  0  0
    1.3980    0.9889   -0.5604 C   0  0  0  0  0  0  0  0  0  0  0  0
    1.2243   -0.8104    1.0406 C   0  0  0  0  0  0  0  0  0  0  0  0
   -2.0268   -1.1500   -0.4299 C   0  0  0  0  0  0  0  0  0  0  0  0
    2.5207   -1.2180    0.7213 C   0  0  0  0  0  0  0  0  0  0  0  0
    2.6942    0.5799   -0.8767 C   0  0  0  0  0  0  0  0  0  0  0  0
    3.2563   -0.5231   -0.2366 C   0  0  0  0  0  0  0  0  0  0  0  0
    0.6972   -0.5303    0.6774 C   0  0  0  0  0  0  0  0  0  0  0  0
   -1.4126    0.5385   -0.0992 C   0  0  0  0  0  0  0  0  0  0  0  0
    1.4809    0.7474    0.6072 C   0  0  0  0  0  0  0  0  0  0  0  0
   -0.3838   -0.5565   -0.3967 C   0  0  2  0  0  0  0  0  0  0  0  0
   -2.3683    0.4440    0.6558 O   0  0  0  0  0  0  0  0  0  0  0  0
    1.4140    1.6734    1.3970 O   0  0  0  0  0  0  0  0  0  0  0  0
   -1.0729   -1.8709   -0.4294 N   0  0  0  0  0  0  0  0  0  0  0  0
   -1.1467    1.6991   -0.7325 O   0  0  0  0  0  0  0  0  0  0  0  0
    2.3109    0.7960   -0.4495 O   0  0  0  0  0  0  0  0  0  0  0  0
   -0.8158    0.8744   -0.1007 C   0  0  0  0  0  0  0  0  0  0  0  0
   -1.6990   -1.0623    1.1980 N   0  0  0  0  0  0  0  0  0  0  0  0
    0.6536    0.5163   -0.0853 C   0  0  0  0  0  0  0  0  0  0  0  0
   -1.7468   -0.3565   -0.0897 C   0  0  1  0  0  0  0  0  0  0  0  0
    1.2971    0.0997   -1.2595 C   0  0  0  0  0  0  0  0  0  0  0  0
    1.3885    0.5837    1.1066 C   0  0  0  0  0  0  0  0  0  0  0  0
   -3.1900    0.0634   -0.3604 C   0  0  0  0  0  0  0  0  0  0  0  0
    2.6511   -0.2380   -1.2427 C   0  0  0  0  0  0  0  0  0  0  0  0
    2.7419    0.2451    1.1217 C   0  0  0  0  0  0  0  0  0  0  0  0
    3.3715   -0.1661   -0.0518 C   0  0  0  0  0  0  0  0  0  0  0  0
   -0.0737    0.3184    0.2787 S   0  0  0  0  0  0  0  0  0  0  0  0
    0.7472    0.3697    1.4644 O   0  0  0  0  0  0  0  0  0  0  0  0
   -1.2420    1.1411    0.0793 O   0  0  0  0  0  0  0  0  0  0  0  0
    0.9078    0.5018   -0.9797 O   0  0  0  0  0  0  0  0  0  0  0  0
   -0.5605   -1.1969    0.0824 O   0  0  0  0  0  0  0  0  0  0  0  0
   -1.1165   -1.6022   -0.8479 H   0  0  0  0  0  0  0  0  0  0  0  0
   -0.9000   -0.1423   -1.7840 H   0  0  0  0  0  0  0  0  0  0  0  0
   -2.1029    2.1043    0.8625 H   0  0  0  0  0  0  0  0  0  0  0  0
   -0.5551    1.8369    0.4337 H   0  0  0  0  0  0  0  0  0  0  0  0
   -1.5780   -0.1466    1.2239 H   0  0  0  0  0  0  0  0  0  0  0  0
    1.2116    1.0404   -1.7221 H   0  0  0  0  0  0  0  0  0  0  0  0
    0.4168   -2.0702    1.1593 H   0  0  0  0  0  0  0  0  0  0  0  0
   -3.8908    0.4406    0.5216 H   0  0  0  0  0  0  0  0  0  0  0  0
   -3.4403    0.2656   -1.1829 H   0  0  0  0  0  0  0  0  0  0  0  0
   -3.4283   -1.1445   -0.1076 H   0  0  0  0  0  0  0  0  0  0  0  0
    3.5779    1.0763   -1.0151 H   0  0  0  0  0  0  0  0  0  0  0  0
    2.7842   -2.0188    1.8580 H   0  0  0  0  0  0  0  0  0  0  0  0
    4.3690   -0.4431    0.7782 H   0  0  0  0  0  0  0  0  0  0  0  0
   -1.0622    0.3145    1.7018 H   0  0  0  0  0  0  0  0  0  0  0  0
   -0.7396    1.8218    0.8735 H   0  0  0  0  0  0  0  0  0  0  0  0
   -3.7482    0.7824   -0.7863 H   0  0  0  0  0  0  0  0  0  0  0  0
   -2.9610    2.0244   -0.0831 H   0  0  0  0  0  0  0  0  0  0  0  0
   -1.4515    0.7121   -1.3283 H   0  0  0  0  0  0  0  0  0  0  0  0
    0.9768    1.8537   -1.0679 H   0  0  0  0  0  0  0  0  0  0  0  0
    0.6651   -1.3639    1.7923 H   0  0  0  0  0  0  0  0  0  0  0  0
   -1.1120   -1.6745   -0.7236 H   0  0  0  0  0  0  0  0  0  0  0  0
   -2.7889   -1.3915   -1.1809 H   0  0  0  0  0  0  0  0  0  0  0  0
   -2.3551   -1.5544    0.5346 H   0  0  0  0  0  0  0  0  0  0  0  0
    2.9581   -2.0764    1.2237 H   0  0  0  0  0  0  0  0  0  0  0  0
    3.2668    1.1226   -1.6237 H   0  0  0  0  0  0  0  0  0  0  0  0
    4.2674   -0.8377   -0.4807 H   0  0  0  0  0  0  0  0  0  0  0  0
    1.3987   -1.3653    0.5689 H   0  0  0  0  0  0  0  0  0  0  0  0
    0.2642   -0.6065    1.6823 H   0  0  0  0  0  0  0  0  0  0  0  0
    0.0349   -0.3833   -1.3939 H   0  0  0  0  0  0  0  0  0  0  0  0
   -1.6968   -1.9313    0.3803 H   0  0  0  0  0  0  0  0  0  0  0  0
   -0.3977   -2.6273   -0.3363 H   0  0  0  0  0  0  0  0  0  0  0  0
   -1.8654    2.2984   -0.4373 H   0  0  0  0  0  0  0  0  0  0  0  0
    2.7432    1.6745   -0.3807 H   0  0  0  0  0  0  0  0  0  0  0  0
   -1.0457    1.5338    0.7473 H   0  0  0  0  0  0  0  0  0  0  0  0
   -1.0071    1.4780   -0.9984 H   0  0  0  0  0  0  0  0  0  0  0  0
   -0.7401   -1.3693    1.3690 H   0  0  0  0  0  0  0  0  0  0  0  0
   -2.2601   -1.9110    1.1412 H   0  0  0  0  0  0  0  0  0  0  0  0
   -1.4402   -1.0563   -0.8760 H   0  0  0  0  0  0  0  0  0  0  0  0
    0.7466    0.0382   -2.1951 H   0  0  0  0  0  0  0  0  0  0  0  0
    0.9066    0.8960    2.0313 H   0  0  0  0  0  0  0  0  0  0  0  0
   -3.8577   -0.8058   -0.3769 H   0  0  0  0  0  0  0  0  0  0  0  0
   -3.5576    0.7591    0.4022 H   0  0  0  0  0  0  0  0  0  0  0  0
   -3.2705    0.5603   -1.3333 H   0  0  0  0  0  0  0  0  0  0  0  0
    3.1443   -0.5547   -2.1585 H   0  0  0  0  0  0  0  0  0  0  0  0
    3.3048    0.3036    2.0494 H   0  0  0  0  0  0  0  0  0  0  0  0
    4.4245   -0.4316   -0.0383 H   0  0  0  0  0  0  0  0  0  0  0  0
    1.7393    0.0236   -0.7792 H   0  0  0  0  0  0  0  0  0  0  0  0
   -1.5182   -1.1575   -0.1460 H   0  0  0  0  0  0  0  0  0  0  0  0
  4  2  1  0
  3  1  1  0
  4  1  1  0
  5  3  2  0
  6  3  1  0
  4  7  1  0
  8  5  1  0
  9  6  2  0
 10  8  2  0
  9 10  1  0
 12 14  1  0
 13 11  1  0
 14 11  1  0
 15 13  2  0
 16 13  1  0
 17 14  1  0
 18 16  2  0
 19 15  1  0
 20 18  1  0
 19 20  2  0
 22 24  1  0
 23 21  1  0
 24 21  1  0
 25 22  2  0
 26 23  2  0
 27 24  1  0
 28 22  1  0
 29 23  1  0
 33 31  1  0
 32 30  1  0
 33 30  1  0
 34 32  2  0
 35 32  1  0
 33 36  1  0
 37 34  1  0
 38 35  2  0
 39 37  2  0
 38 39  1  0
 41 40  2  0
 42 40  2  0
 43 40  1  0
 44 40  1  0
  1 45  1  0
  1 46  1  0
  2 47  1  0
  2 48  1  0
  4 49  1  1
  5 50  1  0
  6 51  1  0
  7 52  1  0
  7 53  1  0
  7 54  1  0
  8 55  1  0
  9 56  1  0
 10 57  1  0
 11 58  1  0
 11 59  1  0
 12 60  1  0
 12 61  1  0
 14 62  1  6
 15 63  1  0
 16 64  1  0
 17 65  1  0
 17 66  1  0
 17 67  1  0
 18 68  1  0
 19 69  1  0
 20 70  1  0
 21 71  1  0
 21 72  1  0
 24 73  1  6
 27 74  1  0
 27 75  1  0
 28 76  1  0
 29 77  1  0
 30 78  1  0
 30 79  1  0
 31 80  1  0
 31 81  1  0
 33 82  1  6
 34 83  1  0
 35 84  1  0
 36 85  1  0
 36 86  1  0
 36 87  1  0
 37 88  1  0
 38 89  1  0
 39 90  1  0
 43 91  1  0
 44 92  1  0
M  END
$$$$
