
     RDKit          3D

 92 90  0  0  0  0  0  0  0  0999 V2000
    0.6772   -0.3259   -1.0321 C   0  0  0  0  0  0  0  0  0  0  0  0
    1.8602   -0.6061    1.1453 N   0  0  0  0  0  0  0  0  0  0  0  0
   -0.7234   -0.1358   -0.4945 C   0  0  0  0  0  0  0  0  0  0  0  0
    1.7755    0.1964   -0.0814 C   0  0  1  0  0  0  0  0  0  0  0  0
   -1.3561    1.1116   -0.5801 C   0  0  0  0  0  0  0  0  0  0  0  0
   -1.4012   -1.2018    0.1119 C   0  0  0  0  0  0  0  0  0  0  0  0
    3.1368    0.1663   -0.7742 C   0  0  0  0  0  0  0  0  0  0  0  0
   -2.6439    1.2870   -0.0717 C   0  0  0  0  0  0  0  0  0  0  0  0
   -2.6874   -1.0240    0.6217 C   0  0  0  0  0  0  0  0  0  0  0  0
   -3.3088    0.2195    0.5289 C   0  0  0  0  0  0  0  0  0  0  0  0
   -0.6913    0.1801   -0.6581 C   0  0  0  0  0  0  0  0  0  0  0  0
   -2.0093   -1.1393    0.9999 N   0  0  0  0  0  0  0  0  0  0  0  0
    0.7511    0.0060   -0.2369 C   0  0  0  0  0  0  0  0  0  0  0  0
   -1.6870    0.2130    0.5229 C   0  0  2  0  0  0  0  0  0  0  0  0
    1.2271   -1.2407    0.1890 C   0  0  0  0  0  0  0  0  0  0  0  0
    1.6368    1.0923   -0.2673 C   0  0  0  0  0  0  0  0  0  0  0  0
   -2.9856    0.9072    0.1061 C   0  0  0  0  0  0  0  0  0  0  0  0
    2.9704    0.9323    0.1139 C   0  0  0  0  0  0  0  0  0  0  0  0
    2.5601   -1.3995    0.5717 C   0  0  0  0  0  0  0  0  0  0  0  0
    3.4319   -0.3137    0.5327 C   0  0  0  0  0  0  0  0  0  0  0  0
    0.5805    0.4258   -0.9751 C   0  0  0  0  0  0  0  0  0  0  0  0
   -1.4577   -0.3566    0.3633 C   0  0  0  0  0  0  0  0  0  0  0  0
    1.2259    0.9573    0.2730 C   0  0  0  0  0  0  0  0  0  0  0  0
   -0.4098   -0.7062   -0.7022 C   0  0  2  0  0  0  0  0  0  0  0  0
   -1.9479   -1.1338    1.1692 O   0  0  0  0  0  0  0  0  0  0  0  0
    1.2410    0.4383    1.3768 O   0  0  0  0  0  0  0  0  0  0  0  0
    0.2907   -1.9636   -0.3372 N   0  0  0  0  0  0  0  0  0  0  0  0
   -1.8867    0.9188    0.3060 O   0  0  0  0  0  0  0  0  0  0  0  0
    1.8611    2.1260    0.0562 O   0  0  0  0  0  0  0  0  0  0  0  0
   -0.7311   -0.5726   -0.4003 C   0  0  0  0  0  0  0  0  0  0  0  0
   -1.9782    1.4342    0.4049 N   0  0  0  0  0  0  0  0  0  0  0  0
    0.7295   -0.2334   -0.2001 C   0  0  0  0  0  0  0  0  0  0  0  0
   -1.6638    0.0243    0.6774 C   0  0  1  0  0  0  0  0  0  0  0  0
    1.6191   -1.1931    0.3036 C   0  0  0  0  0  0  0  0  0  0  0  0
    1.2170    1.0431   -0.5094 C   0  0  0  0  0  0  0  0  0  0  0  0
   -2.9733   -0.7645    0.7450 C   0  0  0  0  0  0  0  0  0  0  0  0
    2.9679   -0.8825    0.4887 C   0  0  0  0  0  0  0  0  0  0  0  0
    2.5648    1.3535   -0.3222 C   0  0  0  0  0  0  0  0  0  0  0  0
    3.4403    0.3905    0.1749 C   0  0  0  0  0  0  0  0  0  0  0  0
   -0.0236    0.4455    0.1018 S   0  0  0  0  0  0  0  0  0  0  0  0
    0.3802    1.3957   -0.9030 O   0  0  0  0  0  0  0  0  0  0  0  0
   -0.5140    0.8144    1.4051 O   0  0  0  0  0  0  0  0  0  0  0  0
   -1.1269   -0.5279   -0.5381 O   0  0  0  0  0  0  0  0  0  0  0  0
    1.2072   -0.5662    0.2921 O   0  0  0  0  0  0  0  0  0  0  0  0
    0.7440    0.1961   -1.9958 H   0  0  0  0  0  0  0  0  0  0  0  0
    0.8453   -1.3866   -1.2633 H   0  0  0  0  0  0  0  0  0  0  0  0
    2.5279   -0.1778    1.7846 H   0  0  0  0  0  0  0  0  0  0  0  0
    0.9567   -0.5751    1.6210 H   0  0  0  0  0  0  0  0  0  0  0  0
    1.5544    1.2332    0.2013 H   0  0  0  0  0  0  0  0  0  0  0  0
   -0.8503    1.9535   -1.0463 H   0  0  0  0  0  0  0  0  0  0  0  0
   -0.9252   -2.1769    0.1925 H   0  0  0  0  0  0  0  0  0  0  0  0
    3.9232    0.5525   -0.1159 H   0  0  0  0  0  0  0  0  0  0  0  0
    3.4156   -0.8508   -1.0717 H   0  0  0  0  0  0  0  0  0  0  0  0
    3.1260    0.7890   -1.6746 H   0  0  0  0  0  0  0  0  0  0  0  0
   -3.1298    2.2563   -0.1450 H   0  0  0  0  0  0  0  0  0  0  0  0
   -3.2050   -1.8572    1.0901 H   0  0  0  0  0  0  0  0  0  0  0  0
   -4.3118    0.3567    0.9236 H   0  0  0  0  0  0  0  0  0  0  0  0
   -0.9560   -0.6117   -1.3718 H   0  0  0  0  0  0  0  0  0  0  0  0
   -0.7731    1.1155   -1.2267 H   0  0  0  0  0  0  0  0  0  0  0  0
   -2.4914   -1.6595    0.2677 H   0  0  0  0  0  0  0  0  0  0  0  0
   -2.6606   -1.0783    1.7818 H   0  0  0  0  0  0  0  0  0  0  0  0
   -1.2496    0.7757    1.3563 H   0  0  0  0  0  0  0  0  0  0  0  0
    0.5546   -2.0946    0.2342 H   0  0  0  0  0  0  0  0  0  0  0  0
    1.2955    2.0722   -0.5928 H   0  0  0  0  0  0  0  0  0  0  0  0
   -2.7899    1.9411   -0.1984 H   0  0  0  0  0  0  0  0  0  0  0  0
   -3.7004    0.9386    0.9361 H   0  0  0  0  0  0  0  0  0  0  0  0
   -3.4657    0.3923   -0.7335 H   0  0  0  0  0  0  0  0  0  0  0  0
    3.6493    1.7806    0.0818 H   0  0  0  0  0  0  0  0  0  0  0  0
    2.9137   -2.3717    0.9048 H   0  0  0  0  0  0  0  0  0  0  0  0
    4.4692   -0.4380    0.8315 H   0  0  0  0  0  0  0  0  0  0  0  0
    0.0500    1.2571   -1.4567 H   0  0  0  0  0  0  0  0  0  0  0  0
    1.3702    0.0888   -1.6574 H   0  0  0  0  0  0  0  0  0  0  0  0
   -0.9652   -0.9103   -1.6253 H   0  0  0  0  0  0  0  0  0  0  0  0
    0.7654   -1.8078    0.5604 H   0  0  0  0  0  0  0  0  0  0  0  0
   -0.4240   -2.6613   -0.1112 H   0  0  0  0  0  0  0  0  0  0  0  0
   -2.5455    0.9727    1.0313 H   0  0  0  0  0  0  0  0  0  0  0  0
    2.2520    2.3548    0.9249 H   0  0  0  0  0  0  0  0  0  0  0  0
   -0.8333   -1.6661   -0.4055 H   0  0  0  0  0  0  0  0  0  0  0  0
   -1.0403   -0.2534   -1.4043 H   0  0  0  0  0  0  0  0  0  0  0  0
   -2.5759    1.7980    1.1462 H   0  0  0  0  0  0  0  0  0  0  0  0
   -2.5179    1.5060   -0.4567 H   0  0  0  0  0  0  0  0  0  0  0  0
   -1.1775   -0.0340    1.6589 H   0  0  0  0  0  0  0  0  0  0  0  0
    1.2687   -2.1911    0.5552 H   0  0  0  0  0  0  0  0  0  0  0  0
    0.5424    1.8075   -0.8889 H   0  0  0  0  0  0  0  0  0  0  0  0
   -2.7810   -1.8081    1.0134 H   0  0  0  0  0  0  0  0  0  0  0  0
   -3.6457   -0.3502    1.5043 H   0  0  0  0  0  0  0  0  0  0  0  0
   -3.4989   -0.7562   -0.2163 H   0  0  0  0  0  0  0  0  0  0  0  0
    3.6495   -1.6338    0.8782 H   0  0  0  0  0  0  0  0  0  0  0  0
    2.9283    2.3496   -0.5609 H   0  0  0  0  0  0  0  0  0  0  0  0
    4.4895    0.6323    0.3196 H   0  0  0  0  0  0  0  0  0  0  0  0
   -1.6042   -0.9511    0.2057 H   0  0  0  0  0  0  0  0  0  0  0  0
    1.6813   -0.6104   -0.5636 H   0  0  0  0  0  0  0  0  0  0  0  0
  4  2  1  0
  3  1  1  0
  4  1  1  0
  5  3  2  0
  6  3  1  0
  4  7  1  0
  8  5  1  0
  9  6  2  0
 10  8  2  0
  9 10  1  0
 12 14  1  0
 13 11  1  0
 14 11  1  0
 15 13  2  0
 16 13  1  0
 17 14  1  0
 18 16  2  0
 19 15  1  0
 20 18  1  0
 19 20  2  0
 22 24  1  0
 23 21  1  0
 24 21  1  0
 25 22  2  0
 26 23  2  0
 27 24  1  0
 28 22  1  0
 29 23  1  0
 33 31  1  0
 32 30  1  0
 33 30  1  0
 34 32  2  0
 35 32  1  0
 33 36  1  0
 37 34  1  0
 38 35  2  0
 39 37  2  0
 38 39  1  0
 41 40  2  0
 42 40  2  0
 43 40  1  0
 44 40  1  0
  1 45  1  0
  1 46  1  0
  2 47  1  0
  2 48  1  0
  4 49  1  1
  5 50  1  0
  6 51  1  0
  7 52  1  0
  7 53  1  0
  7 54  1  0
  8 55  1  0
  9 56  1  0
 10 57  1  0
 11 58  1  0
 11 59  1  0
 12 60  1  0
 12 61  1  0
 14 62  1  1
 15 63  1  0
 16 64  1  0
 17 65  1  0
 17 66  1  0
 17 67  1  0
 18 68  1  0
 19 69  1  0
 20 70  1  0
 21 71  1  0
 21 72  1  0
 24 73  1  6
 27 74  1  0
 27 75  1  0
 28 76  1  0
 29 77  1  0
 30 78  1  0
 30 79  1  0
 31 80  1  0
 31 81  1  0
 33 82  1  1
 34 83  1  0
 35 84  1  0
 36 85  1  0
 36 86  1  0
 36 87  1  0
 37 88  1  0
 38 89  1  0
 39 90  1  0
 43 91  1  0
 44 92  1  0
M  END
$$$$
