
     RDKit          3D

 92 90  0  0  0  0  0  0  0  0999 V2000
   -0.6916    0.6775    0.4990 C   0  0  0  0  0  0  0  0  0  0  0  0
   -2.1001   -1.2544   -0.2126 N   0  0  0  0  0  0  0  0  0  0  0  0
    0.7349    0.1910    0.3780 C   0  0  0  0  0  0  0  0  0  0  0  0
   -1.6425    0.0952   -0.5709 C   0  0  1  0  0  0  0  0  0  0  0  0
    1.0887   -1.0985    0.7972 C   0  0  0  0  0  0  0  0  0  0  0  0
    1.7261    1.0246   -0.1609 C   0  0  0  0  0  0  0  0  0  0  0  0
   -2.8663    0.9972   -0.7445 C   0  0  0  0  0  0  0  0  0  0  0  0
    2.4069   -1.5436    0.6844 C   0  0  0  0  0  0  0  0  0  0  0  0
    3.0450    0.5785   -0.2701 C   0  0  0  0  0  0  0  0  0  0  0  0
    3.3849   -0.7051    0.1535 C   0  0  0  0  0  0  0  0  0  0  0  0
   -0.6546    0.1330   -0.9997 C   0  0  0  0  0  0  0  0  0  0  0  0
   -1.8233   -1.2734    0.6952 N   0  0  0  0  0  0  0  0  0  0  0  0
    0.7323    0.1211   -0.3977 C   0  0  0  0  0  0  0  0  0  0  0  0
   -1.7803    0.0462    0.0534 C   0  0  2  0  0  0  0  0  0  0  0  0
    1.4463   -1.0787   -0.2795 C   0  0  0  0  0  0  0  0  0  0  0  0
    1.3146    1.3072    0.0683 C   0  0  0  0  0  0  0  0  0  0  0  0
   -3.1381    0.3132   -0.5940 C   0  0  0  0  0  0  0  0  0  0  0  0
    2.5882    1.2926    0.6379 C   0  0  0  0  0  0  0  0  0  0  0  0
    2.7173   -1.0922    0.2959 C   0  0  0  0  0  0  0  0  0  0  0  0
    3.2883    0.0928    0.7536 C   0  0  0  0  0  0  0  0  0  0  0  0
    0.6904   -0.8290   -0.8689 C   0  0  0  0  0  0  0  0  0  0  0  0
   -1.3460    0.4896   -0.1339 C   0  0  0  0  0  0  0  0  0  0  0  0
    1.5249    0.4219   -0.8184 C   0  0  0  0  0  0  0  0  0  0  0  0
   -0.5572   -0.8173    0.0145 C   0  0  2  0  0  0  0  0  0  0  0  0
   -1.4654    1.1526   -1.1515 O   0  0  0  0  0  0  0  0  0  0  0  0
    2.1877    0.8707   -1.7390 O   0  0  0  0  0  0  0  0  0  0  0  0
   -0.2224   -1.0916    1.4365 N   0  0  0  0  0  0  0  0  0  0  0  0
   -1.9869    0.8613    0.9983 O   0  0  0  0  0  0  0  0  0  0  0  0
    1.5753    1.0091    0.3915 O   0  0  0  0  0  0  0  0  0  0  0  0
   -0.8182   -0.5712   -0.4440 C   0  0  0  0  0  0  0  0  0  0  0  0
   -1.7235    1.7515   -0.3182 N   0  0  0  0  0  0  0  0  0  0  0  0
    0.6793   -0.4324   -0.2788 C   0  0  0  0  0  0  0  0  0  0  0  0
   -1.6341    0.4574    0.3716 C   0  0  1  0  0  0  0  0  0  0  0  0
    1.4000   -1.3712    0.4729 C   0  0  0  0  0  0  0  0  0  0  0  0
    1.3709    0.6311   -0.8719 C   0  0  0  0  0  0  0  0  0  0  0  0
   -3.0524   -0.0603    0.6194 C   0  0  0  0  0  0  0  0  0  0  0  0
    2.7823   -1.2484    0.6263 C   0  0  0  0  0  0  0  0  0  0  0  0
    2.7527    0.7543   -0.7173 C   0  0  0  0  0  0  0  0  0  0  0  0
    3.4581   -0.1857    0.0301 C   0  0  0  0  0  0  0  0  0  0  0  0
    0.0156    0.4094    0.1704 S   0  0  0  0  0  0  0  0  0  0  0  0
    0.7477    1.5368   -0.3476 O   0  0  0  0  0  0  0  0  0  0  0  0
   -0.2846    0.2530    1.5723 O   0  0  0  0  0  0  0  0  0  0  0  0
   -1.3533    0.2421   -0.6513 O   0  0  0  0  0  0  0  0  0  0  0  0
    0.8126   -0.9115   -0.2724 O   0  0  0  0  0  0  0  0  0  0  0  0
   -1.0611    0.4626    1.5116 H   0  0  0  0  0  0  0  0  0  0  0  0
   -0.6876    1.7731    0.4233 H   0  0  0  0  0  0  0  0  0  0  0  0
   -2.6507   -1.2184    0.6443 H   0  0  0  0  0  0  0  0  0  0  0  0
   -2.7244   -1.6043   -0.9382 H   0  0  0  0  0  0  0  0  0  0  0  0
   -1.1218    0.0366   -1.5341 H   0  0  0  0  0  0  0  0  0  0  0  0
    0.3328   -1.7672    1.2047 H   0  0  0  0  0  0  0  0  0  0  0  0
    1.4786    2.0278   -0.4997 H   0  0  0  0  0  0  0  0  0  0  0  0
   -3.4262    1.0996    0.1908 H   0  0  0  0  0  0  0  0  0  0  0  0
   -2.5642    1.9987   -1.0679 H   0  0  0  0  0  0  0  0  0  0  0  0
   -3.5467    0.5965   -1.5047 H   0  0  0  0  0  0  0  0  0  0  0  0
    2.6678   -2.5478    1.0079 H   0  0  0  0  0  0  0  0  0  0  0  0
    3.8069    1.2333   -0.6854 H   0  0  0  0  0  0  0  0  0  0  0  0
    4.4106   -1.0530    0.0673 H   0  0  0  0  0  0  0  0  0  0  0  0
   -0.7467   -0.6831   -1.7283 H   0  0  0  0  0  0  0  0  0  0  0  0
   -0.7656    1.0574   -1.5828 H   0  0  0  0  0  0  0  0  0  0  0  0
   -2.5351   -1.2764    1.4242 H   0  0  0  0  0  0  0  0  0  0  0  0
   -0.9341   -1.4338    1.1706 H   0  0  0  0  0  0  0  0  0  0  0  0
   -1.6143    0.8010    0.8308 H   0  0  0  0  0  0  0  0  0  0  0  0
    1.0107   -2.0108   -0.6321 H   0  0  0  0  0  0  0  0  0  0  0  0
    0.7812    2.2506   -0.0147 H   0  0  0  0  0  0  0  0  0  0  0  0
   -3.9415    0.2779    0.1504 H   0  0  0  0  0  0  0  0  0  0  0  0
   -3.1578    1.3070   -1.0535 H   0  0  0  0  0  0  0  0  0  0  0  0
   -3.3641   -0.4222   -1.3739 H   0  0  0  0  0  0  0  0  0  0  0  0
    3.0354    2.2171    0.9912 H   0  0  0  0  0  0  0  0  0  0  0  0
    3.2622   -2.0285    0.3852 H   0  0  0  0  0  0  0  0  0  0  0  0
    4.2790    0.0821    1.1996 H   0  0  0  0  0  0  0  0  0  0  0  0
    1.3345   -1.6816   -0.6267 H   0  0  0  0  0  0  0  0  0  0  0  0
    0.3692   -0.9464   -1.9114 H   0  0  0  0  0  0  0  0  0  0  0  0
   -1.2290   -1.6219   -0.3086 H   0  0  0  0  0  0  0  0  0  0  0  0
   -1.0642   -0.8874    1.9851 H   0  0  0  0  0  0  0  0  0  0  0  0
    0.4473   -0.3752    1.7363 H   0  0  0  0  0  0  0  0  0  0  0  0
   -2.4524    1.6859    0.7438 H   0  0  0  0  0  0  0  0  0  0  0  0
    2.1941    1.7594    0.2524 H   0  0  0  0  0  0  0  0  0  0  0  0
   -1.0676   -0.5119   -1.5121 H   0  0  0  0  0  0  0  0  0  0  0  0
   -1.1055   -1.5865   -0.1389 H   0  0  0  0  0  0  0  0  0  0  0  0
   -2.2492    2.4075    0.2585 H   0  0  0  0  0  0  0  0  0  0  0  0
   -2.2530    1.6469   -1.1830 H   0  0  0  0  0  0  0  0  0  0  0  0
   -1.1540    0.6190    1.3439 H   0  0  0  0  0  0  0  0  0  0  0  0
    0.8894   -2.2075    0.9447 H   0  0  0  0  0  0  0  0  0  0  0  0
    0.8315    1.3750   -1.4536 H   0  0  0  0  0  0  0  0  0  0  0  0
   -3.0277   -0.9947    1.1895 H   0  0  0  0  0  0  0  0  0  0  0  0
   -3.6417    0.6606    1.1977 H   0  0  0  0  0  0  0  0  0  0  0  0
   -3.5777   -0.2533   -0.3222 H   0  0  0  0  0  0  0  0  0  0  0  0
    3.3307   -1.9804    1.2124 H   0  0  0  0  0  0  0  0  0  0  0  0
    3.2765    1.5875   -1.1790 H   0  0  0  0  0  0  0  0  0  0  0  0
    4.5332   -0.0867    0.1519 H   0  0  0  0  0  0  0  0  0  0  0  0
   -1.6563   -0.6811   -0.5693 H   0  0  0  0  0  0  0  0  0  0  0  0
    1.7183   -0.8488    0.0979 H   0  0  0  0  0  0  0  0  0  0  0  0
  4  2  1  0
  3  1  1  0
  4  1  1  0
  5  3  2  0
  6  3  1  0
  4  7  1  0
  8  5  1  0
  9  6  2  0
 10  8  2  0
  9 10  1  0
 12 14  1  0
 13 11  1  0
 14 11  1  0
 15 13  2  0
 16 13  1  0
 17 14  1  0
 18 16  2  0
 19 15  1  0
 20 18  1  0
 19 20  2  0
 22 24  1  0
 23 21  1  0
 24 21  1  0
 25 22  2  0
 26 23  2  0
 27 24  1  0
 28 22  1  0
 29 23  1  0
 33 31  1  0
 32 30  1  0
 33 30  1  0
 34 32  2  0
 35 32  1  0
 33 36  1  0
 37 34  1  0
 38 35  2  0
 39 37  2  0
 38 39  1  0
 41 40  2  0
 42 40  2  0
 43 40  1  0
 44 40  1  0
  1 45  1  0
  1 46  1  0
  2 47  1  0
  2 48  1  0
  4 49  1  6
  5 50  1  0
  6 51  1  0
  7 52  1  0
  7 53  1  0
  7 54  1  0
  8 55  1  0
  9 56  1  0
 10 57  1  0
 11 58  1  0
 11 59  1  0
 12 60  1  0
 12 61  1  0
 14 62  1  1
 15 63  1  0
 16 64  1  0
 17 65  1  0
 17 66  1  0
 17 67  1  0
 18 68  1  0
 19 69  1  0
 20 70  1  0
 21 71  1  0
 21 72  1  0
 24 73  1  6
 27 74  1  0
 27 75  1  0
 28 76  1  0
 29 77  1  0
 30 78  1  0
 30 79  1  0
 31 80  1  0
 31 81  1  0
 33 82  1  1
 34 83  1  0
 35 84  1  0
 36 85  1  0
 36 86  1  0
 36 87  1  0
 37 88  1  0
 38 89  1  0
 39 90  1  0
 43 91  1  0
 44 92  1  0
M  END
$$$$
