
     RDKit          3D

 44 42  0  0  0  0  0  0  0  0999 V2000
    1.2650   -0.6819   -0.9397 C   0  0  0  0  0  0  0  0  0  0  0  0
    2.0213    1.6206   -0.5043 N   0  0  0  0  0  0  0  0  0  0  0  0
   -0.0913   -0.4414   -0.3764 C   0  0  0  0  0  0  0  0  0  0  0  0
    2.2827    0.2233   -0.3178 C   0  0  1  0  0  0  0  0  0  0  0  0
   -0.8882    0.4959   -1.0000 C   0  0  0  0  0  0  0  0  0  0  0  0
   -0.5708   -1.1120    0.7288 C   0  0  0  0  0  0  0  0  0  0  0  0
    2.5794   -0.0721    1.1166 C   0  0  0  0  0  0  0  0  0  0  0  0
   -2.1494    0.7405   -0.5014 C   0  0  0  0  0  0  0  0  0  0  0  0
   -1.8184   -0.8525    1.2010 C   0  0  0  0  0  0  0  0  0  0  0  0
   -2.6304    0.0797    0.5931 C   0  0  0  0  0  0  0  0  0  0  0  0
   -1.2024    0.8570   -0.0614 C   0  0  0  0  0  0  0  0  0  0  0  0
   -3.5367    0.4291    0.0447 N   0  0  0  0  0  0  0  0  0  0  0  0
    0.1865    0.3335   -0.1271 C   0  0  0  0  0  0  0  0  0  0  0  0
   -2.2420   -0.2483   -0.0173 C   0  0  0  0  0  0  0  0  0  0  0  0
    0.9447    0.0638    0.9956 C   0  0  0  0  0  0  0  0  0  0  0  0
    0.7918    0.0889   -1.3494 C   0  0  0  0  0  0  0  0  0  0  0  0
   -2.0806   -0.9536    1.3180 C   0  0  0  0  0  0  0  0  0  0  0  0
    2.0819   -0.3977   -1.4423 C   0  0  0  0  0  0  0  0  0  0  0  0
    2.2278   -0.4198    0.9311 C   0  0  0  0  0  0  0  0  0  0  0  0
    2.8290   -0.6628   -0.2919 C   0  0  0  0  0  0  0  0  0  0  0  0
   -0.7026   -0.9377   -0.4691 C   0  0  0  0  0  0  0  0  0  0  0  0
    1.3464    0.3796    0.1148 C   0  0  0  0  0  0  0  0  0  0  0  0
   -1.6980    0.1571   -0.3528 C   0  0  0  0  0  0  0  0  0  0  0  0
    0.5111   -0.7879    0.3487 C   0  0  0  0  0  0  0  0  0  0  0  0
    0.9692    1.4950   -0.3094 O   0  0  0  0  0  0  0  0  0  0  0  0
   -2.7689    0.1280   -1.0243 O   0  0  0  0  0  0  0  0  0  0  0  0
    1.1463   -1.9608    0.8281 N   0  0  0  0  0  0  0  0  0  0  0  0
    2.7249    0.2681    0.3862 O   0  0  0  0  0  0  0  0  0  0  0  0
   -1.5285    1.2585    0.4776 O   0  0  0  0  0  0  0  0  0  0  0  0
    1.2733   -0.4008   -1.1825 C   0  0  0  0  0  0  0  0  0  0  0  0
    2.3436    0.9615    0.5718 N   0  0  0  0  0  0  0  0  0  0  0  0
   -0.0678   -0.0633   -0.5959 C   0  0  0  0  0  0  0  0  0  0  0  0
    2.2745   -0.3434   -0.0520 C   0  0  1  0  0  0  0  0  0  0  0  0
   -0.5186    1.2429   -0.5416 C   0  0  0  0  0  0  0  0  0  0  0  0
   -0.8037   -1.1310   -0.1238 C   0  0  0  0  0  0  0  0  0  0  0  0
    1.7743   -1.3095    1.0199 C   0  0  0  0  0  0  0  0  0  0  0  0
   -1.7453    1.4872    0.0027 C   0  0  0  0  0  0  0  0  0  0  0  0
   -2.0371   -0.8657    0.4212 C   0  0  0  0  0  0  0  0  0  0  0  0
   -2.4932    0.4221    0.4801 C   0  0  0  0  0  0  0  0  0  0  0  0
    0.0022   -0.0390    0.0068 S   0  0  0  0  0  0  0  0  0  0  0  0
    0.0435   -0.9551   -1.1775 O   0  0  0  0  0  0  0  0  0  0  0  0
   -0.1297   -0.8462    1.2505 O   0  0  0  0  0  0  0  0  0  0  0  0
    1.4118    0.8635    0.0396 O   0  0  0  0  0  0  0  0  0  0  0  0
   -1.3277    0.9768   -0.1194 O   0  0  0  0  0  0  0  0  0  0  0  0
  4  2  1  0
  3  1  1  0
  4  1  1  0
  5  3  2  0
  6  3  1  0
  4  7  1  1
  8  5  1  0
  9  6  2  0
 10  8  2  0
  9 10  1  0
 12 14  1  0
 13 11  1  0
 14 11  1  0
 15 13  2  0
 16 13  1  0
 17 14  1  0
 18 16  2  0
 19 15  1  0
 20 18  1  0
 19 20  2  0
 22 24  1  0
 23 21  1  0
 24 21  1  0
 25 22  2  0
 26 23  2  0
 27 24  1  0
 28 22  1  0
 29 23  1  0
 33 31  1  0
 32 30  1  0
 33 30  1  0
 34 32  2  0
 35 32  1  0
 33 36  1  1
 37 34  1  0
 38 35  2  0
 39 37  2  0
 38 39  1  0
 41 40  2  0
 42 40  2  0
 43 40  1  0
 44 40  1  0
M  END
