
     RDKit          3D

 77 74  0  0  0  0  0  0  0  0999 V2000
    2.0557    0.5916   -0.6194 C   0  0  0  0  0  0  0  0  0  0  0  0
    3.2702    1.2103   -0.3362 C   0  0  0  0  0  0  0  0  0  0  0  0
    1.6582   -0.5448    0.1131 C   0  0  0  0  0  0  0  0  0  0  0  0
    4.1024    0.7099    0.6610 C   0  0  0  0  0  0  0  0  0  0  0  0
    2.5147   -1.0308    1.1211 C   0  0  0  0  0  0  0  0  0  0  0  0
   -2.1277   -1.1328    0.1128 N   0  0  0  0  0  0  0  0  0  0  0  0
    3.7339   -0.4054    1.3955 C   0  0  0  0  0  0  0  0  0  0  0  0
   -0.8870   -0.3284    0.0742 C   0  0  0  0  0  0  0  0  0  0  0  0
    0.3435   -1.2311   -0.2103 C   0  0  2  0  0  0  0  0  0  0  0  0
    3.6944    2.3174   -1.0193 O   0  0  0  0  0  0  0  0  0  0  0  0
    5.2983    1.3157    0.9214 O   0  0  0  0  0  0  0  0  0  0  0  0
    0.2029   -2.4598    0.5103 O   0  0  0  0  0  0  0  0  0  0  0  0
   -3.3653   -0.3722   -0.1230 C   0  0  0  0  0  0  0  0  0  0  0  0
   -3.5293    0.8405    0.7918 C   0  0  0  0  0  0  0  0  0  0  0  0
   -3.5094    0.0183   -1.5942 C   0  0  0  0  0  0  0  0  0  0  0  0
   -0.1107   -0.3798    0.2031 S   0  0  0  0  0  0  0  0  0  0  0  0
    0.4936   -0.3648    1.5119 O   0  0  0  0  0  0  0  0  0  0  0  0
   -1.2670   -1.1799   -0.1143 O   0  0  0  0  0  0  0  0  0  0  0  0
   -0.4849    1.1411   -0.1471 O   0  0  0  0  0  0  0  0  0  0  0  0
    1.0461   -0.6740   -0.8704 O   0  0  0  0  0  0  0  0  0  0  0  0
    1.4024    0.8088   -0.4739 C   0  0  0  0  0  0  0  0  0  0  0  0
    2.5102    1.5877   -0.1611 C   0  0  0  0  0  0  0  0  0  0  0  0
    1.4544   -0.5824   -0.2992 C   0  0  0  0  0  0  0  0  0  0  0  0
    3.6790    1.0101    0.3228 C   0  0  0  0  0  0  0  0  0  0  0  0
    2.6503   -1.1558    0.1789 C   0  0  0  0  0  0  0  0  0  0  0  0
   -1.4906   -0.5183    0.8154 N   0  0  0  0  0  0  0  0  0  0  0  0
    3.7589   -0.3643    0.4963 C   0  0  0  0  0  0  0  0  0  0  0  0
   -1.1334   -0.9151   -0.5531 C   0  0  0  0  0  0  0  0  0  0  0  0
    0.3017   -1.4977   -0.6710 C   0  0  1  0  0  0  0  0  0  0  0  0
    2.4437    2.9407   -0.3384 O   0  0  0  0  0  0  0  0  0  0  0  0
    4.7293    1.8384    0.6077 O   0  0  0  0  0  0  0  0  0  0  0  0
    0.4955   -1.9454   -2.0186 O   0  0  0  0  0  0  0  0  0  0  0  0
   -2.8226    0.0783    0.9737 C   0  0  0  0  0  0  0  0  0  0  0  0
   -2.9641    1.4099    0.2357 C   0  0  0  0  0  0  0  0  0  0  0  0
   -3.9592   -0.8799    0.6154 C   0  0  0  0  0  0  0  0  0  0  0  0
    0.0486    0.3950    0.0000 O   0  0  0  0  0  0  0  0  0  0  0  0
    0.0601    0.3931    0.0000 O   0  0  0  0  0  0  0  0  0  0  0  0
    1.4194    0.9720   -1.4126 H   0  0  0  0  0  0  0  0  0  0  0  0
    2.2407   -1.9144    1.6964 H   0  0  0  0  0  0  0  0  0  0  0  0
   -2.1868   -1.5376    1.0510 H   0  0  0  0  0  0  0  0  0  0  0  0
    4.3910   -0.7946    2.1682 H   0  0  0  0  0  0  0  0  0  0  0  0
   -0.7682    0.1813    1.0411 H   0  0  0  0  0  0  0  0  0  0  0  0
   -0.9270    0.4504   -0.6988 H   0  0  0  0  0  0  0  0  0  0  0  0
    0.3566   -1.5042   -1.2710 H   0  0  0  0  0  0  0  0  0  0  0  0
    2.9697    2.6175   -1.5958 H   0  0  0  0  0  0  0  0  0  0  0  0
    5.3461    2.0479    0.2752 H   0  0  0  0  0  0  0  0  0  0  0  0
   -0.6913   -2.7690    0.2680 H   0  0  0  0  0  0  0  0  0  0  0  0
   -4.1892   -1.0611    0.0987 H   0  0  0  0  0  0  0  0  0  0  0  0
   -4.5291    1.2716    0.6739 H   0  0  0  0  0  0  0  0  0  0  0  0
   -2.8054    1.6275    0.5628 H   0  0  0  0  0  0  0  0  0  0  0  0
   -3.4132    0.5606    1.8444 H   0  0  0  0  0  0  0  0  0  0  0  0
   -2.7933    0.7943   -1.8883 H   0  0  0  0  0  0  0  0  0  0  0  0
   -4.5157    0.4079   -1.7880 H   0  0  0  0  0  0  0  0  0  0  0  0
   -3.3598   -0.8485   -2.2532 H   0  0  0  0  0  0  0  0  0  0  0  0
   -1.3157    1.3558    0.3268 H   0  0  0  0  0  0  0  0  0  0  0  0
    1.6386    0.1016   -0.9101 H   0  0  0  0  0  0  0  0  0  0  0  0
    0.5100    1.3013   -0.8472 H   0  0  0  0  0  0  0  0  0  0  0  0
    2.7245   -2.2352    0.3034 H   0  0  0  0  0  0  0  0  0  0  0  0
   -1.4107   -1.3291    1.4298 H   0  0  0  0  0  0  0  0  0  0  0  0
    4.6601   -0.8422    0.8654 H   0  0  0  0  0  0  0  0  0  0  0  0
   -1.2328   -0.0766   -1.2519 H   0  0  0  0  0  0  0  0  0  0  0  0
   -1.8263   -1.6858   -0.9132 H   0  0  0  0  0  0  0  0  0  0  0  0
    0.3427   -2.3925   -0.0369 H   0  0  0  0  0  0  0  0  0  0  0  0
    3.3199    3.2691   -0.0590 H   0  0  0  0  0  0  0  0  0  0  0  0
    5.4658    1.2893    0.9269 H   0  0  0  0  0  0  0  0  0  0  0  0
    1.1150   -1.3268   -2.4464 H   0  0  0  0  0  0  0  0  0  0  0  0
   -2.9228    0.3054    2.0426 H   0  0  0  0  0  0  0  0  0  0  0  0
   -2.9695    1.2862   -0.8509 H   0  0  0  0  0  0  0  0  0  0  0  0
   -3.9038    1.9014    0.5132 H   0  0  0  0  0  0  0  0  0  0  0  0
   -2.1481    2.0899    0.5029 H   0  0  0  0  0  0  0  0  0  0  0  0
   -3.8635   -1.8257    1.1621 H   0  0  0  0  0  0  0  0  0  0  0  0
   -4.9263   -0.4405    0.8878 H   0  0  0  0  0  0  0  0  0  0  0  0
   -3.9899   -1.1034   -0.4569 H   0  0  0  0  0  0  0  0  0  0  0  0
    0.7337   -0.2908    0.0000 H   0  0  0  0  0  0  0  0  0  0  0  0
   -0.7824   -0.1043    0.0000 H   0  0  0  0  0  0  0  0  0  0  0  0
    0.7249   -0.3123    0.0000 H   0  0  0  0  0  0  0  0  0  0  0  0
   -0.7849   -0.0808    0.0000 H   0  0  0  0  0  0  0  0  0  0  0  0
  2  1  2  0
  3  1  1  0
  4  2  1  0
  5  3  2  0
  6  8  1  0
  7  5  1  0
  8  9  1  0
  9  3  1  0
 10  2  1  0
 11  4  1  0
 12  9  1  0
 13  6  1  0
 14 13  1  0
 15 13  1  0
  7  4  2  0
 17 16  2  0
 18 16  2  0
 19 16  1  0
 20 16  1  0
 22 21  2  0
 23 21  1  0
 24 22  1  0
 25 23  2  0
 26 28  1  0
 27 25  1  0
 28 29  1  0
 29 23  1  0
 30 22  1  0
 31 24  1  0
 32 29  1  0
 33 26  1  0
 34 33  1  0
 35 33  1  0
 27 24  2  0
  1 38  1  0
  5 39  1  0
  6 40  1  0
  7 41  1  0
  8 42  1  0
  8 43  1  0
  9 44  1  6
 10 45  1  0
 11 46  1  0
 12 47  1  0
 13 48  1  0
 14 49  1  0
 14 50  1  0
 14 51  1  0
 15 52  1  0
 15 53  1  0
 15 54  1  0
 19 55  1  0
 20 56  1  0
 21 57  1  0
 25 58  1  0
 26 59  1  0
 27 60  1  0
 28 61  1  0
 28 62  1  0
 29 63  1  1
 30 64  1  0
 31 65  1  0
 32 66  1  0
 33 67  1  0
 34 68  1  0
 34 69  1  0
 34 70  1  0
 35 71  1  0
 35 72  1  0
 35 73  1  0
 36 74  1  0
 36 75  1  0
 37 76  1  0
 37 77  1  0
M  END
$$$$
