
     RDKit          3D

 77 74  0  0  0  0  0  0  0  0999 V2000
    2.3725   -1.4386    0.2705 C   0  0  0  0  0  0  0  0  0  0  0  0
    3.6684   -1.2999   -0.2077 C   0  0  0  0  0  0  0  0  0  0  0  0
    1.5951   -0.2944    0.5073 C   0  0  0  0  0  0  0  0  0  0  0  0
    4.2076   -0.0423   -0.4599 C   0  0  0  0  0  0  0  0  0  0  0  0
    2.1494    0.9735    0.2483 C   0  0  0  0  0  0  0  0  0  0  0  0
   -2.2354   -0.3779    0.4145 N   0  0  0  0  0  0  0  0  0  0  0  0
    3.4548    1.1025   -0.2358 C   0  0  0  0  0  0  0  0  0  0  0  0
   -0.8713   -0.1049   -0.0717 C   0  0  0  0  0  0  0  0  0  0  0  0
    0.1762   -0.4351    1.0170 C   0  0  2  0  0  0  0  0  0  0  0  0
    4.4149   -2.4198   -0.4371 O   0  0  0  0  0  0  0  0  0  0  0  0
    5.4904    0.0167   -0.9317 O   0  0  0  0  0  0  0  0  0  0  0  0
   -0.0131    0.4437    2.1349 O   0  0  0  0  0  0  0  0  0  0  0  0
   -3.2708    0.1145   -0.4998 C   0  0  0  0  0  0  0  0  0  0  0  0
   -4.5481   -0.6764   -0.2284 C   0  0  0  0  0  0  0  0  0  0  0  0
   -3.5332    1.6097   -0.3084 C   0  0  0  0  0  0  0  0  0  0  0  0
   -0.0436   -0.3424    0.3029 S   0  0  0  0  0  0  0  0  0  0  0  0
    0.6202   -0.1311    1.5637 O   0  0  0  0  0  0  0  0  0  0  0  0
   -1.1598   -1.2411    0.1425 O   0  0  0  0  0  0  0  0  0  0  0  0
   -0.5396    1.0920   -0.2142 O   0  0  0  0  0  0  0  0  0  0  0  0
    1.0726   -0.6936   -0.7952 O   0  0  0  0  0  0  0  0  0  0  0  0
   -2.6611    0.7697    0.2166 C   0  0  0  0  0  0  0  0  0  0  0  0
   -3.7349   -0.0347   -0.1563 C   0  0  0  0  0  0  0  0  0  0  0  0
   -1.4000    0.1929    0.4499 C   0  0  0  0  0  0  0  0  0  0  0  0
   -3.5721   -1.4069   -0.3092 C   0  0  0  0  0  0  0  0  0  0  0  0
   -1.2574   -1.1988    0.2874 C   0  0  0  0  0  0  0  0  0  0  0  0
    1.5992    0.1579   -0.7532 N   0  0  0  0  0  0  0  0  0  0  0  0
   -2.3392   -1.9986   -0.0926 C   0  0  0  0  0  0  0  0  0  0  0  0
    0.7744    1.2979   -0.3289 C   0  0  0  0  0  0  0  0  0  0  0  0
   -0.1977    1.0306    0.8531 C   0  0  1  0  0  0  0  0  0  0  0  0
   -4.9787    0.4898   -0.3854 O   0  0  0  0  0  0  0  0  0  0  0  0
   -4.6352   -2.1802   -0.6795 O   0  0  0  0  0  0  0  0  0  0  0  0
   -0.6392    2.2893    1.3829 O   0  0  0  0  0  0  0  0  0  0  0  0
    2.7201   -0.1516    0.1437 C   0  0  0  0  0  0  0  0  0  0  0  0
    3.9015    0.8014   -0.0576 C   0  0  0  0  0  0  0  0  0  0  0  0
    3.1598   -1.5891   -0.1502 C   0  0  0  0  0  0  0  0  0  0  0  0
   -0.0087    0.3974    0.0000 O   0  0  0  0  0  0  0  0  0  0  0  0
   -0.0397    0.3957    0.0000 O   0  0  0  0  0  0  0  0  0  0  0  0
    1.9793   -2.4340    0.4540 H   0  0  0  0  0  0  0  0  0  0  0  0
    1.5560    1.8684    0.4286 H   0  0  0  0  0  0  0  0  0  0  0  0
   -2.3342    0.0617    1.3339 H   0  0  0  0  0  0  0  0  0  0  0  0
    3.8552    2.0933   -0.4244 H   0  0  0  0  0  0  0  0  0  0  0  0
   -0.7797    0.9525   -0.3456 H   0  0  0  0  0  0  0  0  0  0  0  0
   -0.6791   -0.7090   -0.9671 H   0  0  0  0  0  0  0  0  0  0  0  0
    0.0163   -1.4570    1.3837 H   0  0  0  0  0  0  0  0  0  0  0  0
    5.2747   -2.0813   -0.7595 H   0  0  0  0  0  0  0  0  0  0  0  0
    5.7236    0.9531   -1.0566 H   0  0  0  0  0  0  0  0  0  0  0  0
    0.7590    0.3046    2.7213 H   0  0  0  0  0  0  0  0  0  0  0  0
   -2.9783   -0.0778   -1.5397 H   0  0  0  0  0  0  0  0  0  0  0  0
   -4.3850   -1.7516   -0.3728 H   0  0  0  0  0  0  0  0  0  0  0  0
   -5.3455   -0.3689   -0.9165 H   0  0  0  0  0  0  0  0  0  0  0  0
   -4.9084   -0.5222    0.7944 H   0  0  0  0  0  0  0  0  0  0  0  0
   -3.7810    1.8492    0.7311 H   0  0  0  0  0  0  0  0  0  0  0  0
   -4.3696    1.9379   -0.9340 H   0  0  0  0  0  0  0  0  0  0  0  0
   -2.6608    2.2095   -0.5931 H   0  0  0  0  0  0  0  0  0  0  0  0
   -1.4822    1.1869    0.0445 H   0  0  0  0  0  0  0  0  0  0  0  0
    1.5325    0.1293   -1.0442 H   0  0  0  0  0  0  0  0  0  0  0  0
   -2.7944    1.8403    0.3390 H   0  0  0  0  0  0  0  0  0  0  0  0
   -0.2911   -1.6711    0.4479 H   0  0  0  0  0  0  0  0  0  0  0  0
    1.9533    0.3341   -1.6944 H   0  0  0  0  0  0  0  0  0  0  0  0
   -2.2163   -3.0697   -0.2205 H   0  0  0  0  0  0  0  0  0  0  0  0
    0.1795    1.6226   -1.1930 H   0  0  0  0  0  0  0  0  0  0  0  0
    1.4137    2.1565   -0.0935 H   0  0  0  0  0  0  0  0  0  0  0  0
    0.3152    0.5275    1.6803 H   0  0  0  0  0  0  0  0  0  0  0  0
   -4.9345    1.4448   -0.1932 H   0  0  0  0  0  0  0  0  0  0  0  0
   -5.3736   -1.5463   -0.7696 H   0  0  0  0  0  0  0  0  0  0  0  0
    0.1535    2.7519    1.7032 H   0  0  0  0  0  0  0  0  0  0  0  0
    2.4038   -0.1144    1.1898 H   0  0  0  0  0  0  0  0  0  0  0  0
    3.6360    1.8351    0.1790 H   0  0  0  0  0  0  0  0  0  0  0  0
    4.2627    0.7699   -1.0911 H   0  0  0  0  0  0  0  0  0  0  0  0
    4.7391    0.5252    0.5939 H   0  0  0  0  0  0  0  0  0  0  0  0
    3.5067   -1.6951   -1.1848 H   0  0  0  0  0  0  0  0  0  0  0  0
    3.9768   -1.8872    0.5147 H   0  0  0  0  0  0  0  0  0  0  0  0
    2.3301   -2.2939   -0.0068 H   0  0  0  0  0  0  0  0  0  0  0  0
   -0.7589   -0.2154    0.0000 H   0  0  0  0  0  0  0  0  0  0  0  0
    0.7676   -0.1821    0.0000 H   0  0  0  0  0  0  0  0  0  0  0  0
    0.7798   -0.1215    0.0000 H   0  0  0  0  0  0  0  0  0  0  0  0
   -0.7401   -0.2742    0.0000 H   0  0  0  0  0  0  0  0  0  0  0  0
  2  1  2  0
  3  1  1  0
  4  2  1  0
  5  3  2  0
  6  8  1  0
  7  5  1  0
  8  9  1  0
  9  3  1  0
 10  2  1  0
 11  4  1  0
 12  9  1  0
 13  6  1  0
 14 13  1  0
 15 13  1  0
  7  4  2  0
 17 16  2  0
 18 16  2  0
 19 16  1  0
 20 16  1  0
 22 21  2  0
 23 21  1  0
 24 22  1  0
 25 23  2  0
 26 28  1  0
 27 25  1  0
 28 29  1  0
 29 23  1  0
 30 22  1  0
 31 24  1  0
 32 29  1  0
 33 26  1  0
 34 33  1  0
 35 33  1  0
 27 24  2  0
  1 38  1  0
  5 39  1  0
  6 40  1  0
  7 41  1  0
  8 42  1  0
  8 43  1  0
  9 44  1  1
 10 45  1  0
 11 46  1  0
 12 47  1  0
 13 48  1  0
 14 49  1  0
 14 50  1  0
 14 51  1  0
 15 52  1  0
 15 53  1  0
 15 54  1  0
 19 55  1  0
 20 56  1  0
 21 57  1  0
 25 58  1  0
 26 59  1  0
 27 60  1  0
 28 61  1  0
 28 62  1  0
 29 63  1  1
 30 64  1  0
 31 65  1  0
 32 66  1  0
 33 67  1  0
 34 68  1  0
 34 69  1  0
 34 70  1  0
 35 71  1  0
 35 72  1  0
 35 73  1  0
 36 74  1  0
 36 75  1  0
 37 76  1  0
 37 77  1  0
M  END
$$$$
