
     RDKit          3D

 77 74  0  0  0  0  0  0  0  0999 V2000
    2.2007    0.0424    0.7895 C   0  0  0  0  0  0  0  0  0  0  0  0
    3.4914    0.5609    0.7719 C   0  0  0  0  0  0  0  0  0  0  0  0
    1.6655   -0.5400   -0.3750 C   0  0  0  0  0  0  0  0  0  0  0  0
    4.2555    0.5101   -0.3899 C   0  0  0  0  0  0  0  0  0  0  0  0
    2.4510   -0.5813   -1.5410 C   0  0  0  0  0  0  0  0  0  0  0  0
   -2.1682   -0.6358   -0.3894 N   0  0  0  0  0  0  0  0  0  0  0  0
    3.7471   -0.0589   -1.5477 C   0  0  0  0  0  0  0  0  0  0  0  0
   -0.8299   -0.0312   -0.2534 C   0  0  0  0  0  0  0  0  0  0  0  0
    0.2657   -1.1158   -0.3845 C   0  0  2  0  0  0  0  0  0  0  0  0
    4.0545    1.1314    1.8790 O   0  0  0  0  0  0  0  0  0  0  0  0
    5.5228    1.0193   -0.3981 O   0  0  0  0  0  0  0  0  0  0  0  0
    0.1470   -2.0414    0.7065 O   0  0  0  0  0  0  0  0  0  0  0  0
   -3.2548    0.2564    0.0316 C   0  0  0  0  0  0  0  0  0  0  0  0
   -3.3781    1.4920   -0.8632 C   0  0  0  0  0  0  0  0  0  0  0  0
   -4.5622   -0.5380   -0.0044 C   0  0  0  0  0  0  0  0  0  0  0  0
    0.0040    0.3629    0.2618 S   0  0  0  0  0  0  0  0  0  0  0  0
    0.1465    0.1785    1.6839 O   0  0  0  0  0  0  0  0  0  0  0  0
   -0.2271    1.6412   -0.3616 O   0  0  0  0  0  0  0  0  0  0  0  0
   -1.1668   -0.6050   -0.2537 O   0  0  0  0  0  0  0  0  0  0  0  0
    1.2898   -0.3135   -0.4189 O   0  0  0  0  0  0  0  0  0  0  0  0
    1.9864   -0.9007    0.2197 C   0  0  0  0  0  0  0  0  0  0  0  0
    3.2155   -0.9015    0.8674 C   0  0  0  0  0  0  0  0  0  0  0  0
    1.6088    0.2002   -0.5706 C   0  0  0  0  0  0  0  0  0  0  0  0
    4.0727    0.1906    0.7652 C   0  0  0  0  0  0  0  0  0  0  0  0
    2.5045    1.2805   -0.6921 C   0  0  0  0  0  0  0  0  0  0  0  0
   -2.1959    0.4547   -0.9999 N   0  0  0  0  0  0  0  0  0  0  0  0
    3.7341    1.2770   -0.0255 C   0  0  0  0  0  0  0  0  0  0  0  0
   -0.9293    0.1509   -0.2981 C   0  0  0  0  0  0  0  0  0  0  0  0
    0.2704    0.1859   -1.2845 C   0  0  1  0  0  0  0  0  0  0  0  0
    3.5851   -2.0088    1.5754 O   0  0  0  0  0  0  0  0  0  0  0  0
    5.2456    0.2193    1.4631 O   0  0  0  0  0  0  0  0  0  0  0  0
    0.1253    1.3209   -2.1507 O   0  0  0  0  0  0  0  0  0  0  0  0
   -3.4114    0.0363   -0.2836 C   0  0  0  0  0  0  0  0  0  0  0  0
   -3.5749   -1.4868   -0.2780 C   0  0  0  0  0  0  0  0  0  0  0  0
   -3.5181    0.6159    1.1282 C   0  0  0  0  0  0  0  0  0  0  0  0
   -0.0438    0.3952    0.0000 O   0  0  0  0  0  0  0  0  0  0  0  0
    0.0058    0.3976    0.0000 O   0  0  0  0  0  0  0  0  0  0  0  0
    1.6017    0.0741    1.6966 H   0  0  0  0  0  0  0  0  0  0  0  0
    2.0591   -1.0217   -2.4559 H   0  0  0  0  0  0  0  0  0  0  0  0
   -2.1743   -1.4744    0.2009 H   0  0  0  0  0  0  0  0  0  0  0  0
    4.3542   -0.0917   -2.4479 H   0  0  0  0  0  0  0  0  0  0  0  0
   -0.7489    0.4432    0.7331 H   0  0  0  0  0  0  0  0  0  0  0  0
   -0.6811    0.7332   -1.0251 H   0  0  0  0  0  0  0  0  0  0  0  0
    0.1026   -1.6905   -1.3033 H   0  0  0  0  0  0  0  0  0  0  0  0
    3.4141    1.0683    2.6084 H   0  0  0  0  0  0  0  0  0  0  0  0
    5.6442    1.3816    0.5030 H   0  0  0  0  0  0  0  0  0  0  0  0
    0.8557   -2.6954    0.5764 H   0  0  0  0  0  0  0  0  0  0  0  0
   -3.0897    0.5803    1.0669 H   0  0  0  0  0  0  0  0  0  0  0  0
   -3.4850    1.2117   -1.9183 H   0  0  0  0  0  0  0  0  0  0  0  0
   -2.5041    2.1451   -0.7689 H   0  0  0  0  0  0  0  0  0  0  0  0
   -4.2555    2.0858   -0.5807 H   0  0  0  0  0  0  0  0  0  0  0  0
   -4.5035   -1.4243    0.6395 H   0  0  0  0  0  0  0  0  0  0  0  0
   -5.3959    0.0757    0.3550 H   0  0  0  0  0  0  0  0  0  0  0  0
   -4.8013   -0.8711   -1.0216 H   0  0  0  0  0  0  0  0  0  0  0  0
   -1.5734   -0.1714   -1.0334 H   0  0  0  0  0  0  0  0  0  0  0  0
    1.5270   -1.0927    0.1219 H   0  0  0  0  0  0  0  0  0  0  0  0
    1.3349   -1.7661    0.3210 H   0  0  0  0  0  0  0  0  0  0  0  0
    2.2460    2.1403   -1.3097 H   0  0  0  0  0  0  0  0  0  0  0  0
   -2.2390    1.4717   -1.1073 H   0  0  0  0  0  0  0  0  0  0  0  0
    4.4096    2.1229   -0.1171 H   0  0  0  0  0  0  0  0  0  0  0  0
   -0.7817    0.8975    0.4937 H   0  0  0  0  0  0  0  0  0  0  0  0
   -0.9562   -0.8334    0.1838 H   0  0  0  0  0  0  0  0  0  0  0  0
    0.2412   -0.6989   -1.9328 H   0  0  0  0  0  0  0  0  0  0  0  0
    4.5474   -2.0966    1.4467 H   0  0  0  0  0  0  0  0  0  0  0  0
    5.0479   -0.1705    2.3345 H   0  0  0  0  0  0  0  0  0  0  0  0
   -0.7657    1.2022   -2.5303 H   0  0  0  0  0  0  0  0  0  0  0  0
   -4.2533    0.4385   -0.8630 H   0  0  0  0  0  0  0  0  0  0  0  0
   -2.8480   -1.9786    0.3766 H   0  0  0  0  0  0  0  0  0  0  0  0
   -4.5753   -1.7580    0.0785 H   0  0  0  0  0  0  0  0  0  0  0  0
   -3.4634   -1.9005   -1.2871 H   0  0  0  0  0  0  0  0  0  0  0  0
   -4.5085    0.4151    1.5503 H   0  0  0  0  0  0  0  0  0  0  0  0
   -3.3789    1.7010    1.1211 H   0  0  0  0  0  0  0  0  0  0  0  0
   -2.7760    0.1791    1.8050 H   0  0  0  0  0  0  0  0  0  0  0  0
    0.7810   -0.1136    0.0000 H   0  0  0  0  0  0  0  0  0  0  0  0
   -0.7372   -0.2816    0.0000 H   0  0  0  0  0  0  0  0  0  0  0  0
    0.7608   -0.2099    0.0000 H   0  0  0  0  0  0  0  0  0  0  0  0
   -0.7667   -0.1877    0.0000 H   0  0  0  0  0  0  0  0  0  0  0  0
  2  1  2  0
  3  1  1  0
  4  2  1  0
  5  3  2  0
  6  8  1  0
  7  5  1  0
  8  9  1  0
  9  3  1  0
 10  2  1  0
 11  4  1  0
 12  9  1  0
 13  6  1  0
 14 13  1  0
 15 13  1  0
  7  4  2  0
 17 16  2  0
 18 16  2  0
 19 16  1  0
 20 16  1  0
 22 21  2  0
 23 21  1  0
 24 22  1  0
 25 23  2  0
 26 28  1  0
 27 25  1  0
 28 29  1  0
 29 23  1  0
 30 22  1  0
 31 24  1  0
 32 29  1  0
 33 26  1  0
 34 33  1  0
 35 33  1  0
 27 24  2  0
  1 38  1  0
  5 39  1  0
  6 40  1  0
  7 41  1  0
  8 42  1  0
  8 43  1  0
  9 44  1  6
 10 45  1  0
 11 46  1  0
 12 47  1  0
 13 48  1  0
 14 49  1  0
 14 50  1  0
 14 51  1  0
 15 52  1  0
 15 53  1  0
 15 54  1  0
 19 55  1  0
 20 56  1  0
 21 57  1  0
 25 58  1  0
 26 59  1  0
 27 60  1  0
 28 61  1  0
 28 62  1  0
 29 63  1  6
 30 64  1  0
 31 65  1  0
 32 66  1  0
 33 67  1  0
 34 68  1  0
 34 69  1  0
 34 70  1  0
 35 71  1  0
 35 72  1  0
 35 73  1  0
 36 74  1  0
 36 75  1  0
 37 76  1  0
 37 77  1  0
M  END
$$$$
