
     RDKit          3D

 77 77  0  0  0  0  0  0  0  0999 V2000
   -0.0704    0.3789    1.1211 C   0  0  0  0  0  0  0  0  0  0  0  0
   -1.3811    0.2181    0.4344 C   0  0  0  0  0  0  0  0  0  0  0  0
    0.3339    1.4468    1.5527 O   0  0  0  0  0  0  0  0  0  0  0  0
   -2.2065    1.3415    0.3102 C   0  0  0  0  0  0  0  0  0  0  0  0
   -1.8040   -1.0009   -0.1083 C   0  0  0  0  0  0  0  0  0  0  0  0
   -3.8968    0.0130   -0.8229 C   0  0  0  0  0  0  0  0  0  0  0  0
    0.5801   -0.8086    1.1839 O   0  0  0  0  0  0  0  0  0  0  0  0
   -5.0766   -0.0554   -1.5700 N   0  0  0  0  0  0  0  0  0  0  0  0
   -3.4451    1.2402   -0.3324 C   0  0  0  0  0  0  0  0  0  0  0  0
   -3.0450   -1.0920   -0.7494 C   0  0  0  0  0  0  0  0  0  0  0  0
    1.8674   -0.8065    1.8206 C   0  0  0  0  0  0  0  0  0  0  0  0
    2.9643   -1.0347    0.7836 C   0  0  0  0  0  0  0  0  0  0  0  0
    3.0868    0.1243   -0.2073 C   0  0  0  0  0  0  0  0  0  0  0  0
    4.2297   -0.1001   -1.1850 C   0  0  0  0  0  0  0  0  0  0  0  0
   -1.0507   -0.8008   -0.2255 C   0  0  0  0  0  0  0  0  0  0  0  0
    1.2445   -0.2471    0.2135 C   0  0  0  0  0  0  0  0  0  0  0  0
    0.2644   -1.2287   -0.0078 C   0  0  0  0  0  0  0  0  0  0  0  0
   -2.0945   -1.7771   -0.4514 N   0  0  0  0  0  0  0  0  0  0  0  0
    2.6457   -0.6193    0.4484 N   0  0  0  0  0  0  0  0  0  0  0  0
   -0.7784    2.9356   -0.0153 N   0  0  0  0  0  0  0  0  0  0  0  0
   -0.4238    1.5085   -0.0135 C   0  0  0  0  0  0  0  0  0  0  0  0
    0.9068    1.1214    0.2128 C   0  0  0  0  0  0  0  0  0  0  0  0
   -1.4169    0.5506   -0.2360 C   0  0  0  0  0  0  0  0  0  0  0  0
   -2.4541   -1.9413   -1.6237 O   0  0  0  0  0  0  0  0  0  0  0  0
    2.9101   -1.8294    0.5024 O   0  0  0  0  0  0  0  0  0  0  0  0
    0.1361    3.7511    0.1537 O   0  0  0  0  0  0  0  0  0  0  0  0
   -2.5838   -2.3126    0.5503 O   0  0  0  0  0  0  0  0  0  0  0  0
    3.4728    0.2907    0.5770 O   0  0  0  0  0  0  0  0  0  0  0  0
   -1.9688    3.2271   -0.1842 O   0  0  0  0  0  0  0  0  0  0  0  0
    0.5148   -2.5724   -0.0358 O   0  0  0  0  0  0  0  0  0  0  0  0
    0.1709   -1.0329    0.2769 C   0  0  0  0  0  0  0  0  0  0  0  0
    1.6026   -0.6279    0.3127 C   0  0  0  0  0  0  0  0  0  0  0  0
   -0.2270   -2.0533   -0.2625 O   0  0  0  0  0  0  0  0  0  0  0  0
    2.5389   -1.4452   -0.3310 C   0  0  0  0  0  0  0  0  0  0  0  0
    2.0398    0.5423    0.9435 C   0  0  0  0  0  0  0  0  0  0  0  0
    4.3433    0.0334    0.3489 C   0  0  0  0  0  0  0  0  0  0  0  0
   -0.5994   -0.1158    0.9141 O   0  0  0  0  0  0  0  0  0  0  0  0
    5.6784    0.4353    0.2450 N   0  0  0  0  0  0  0  0  0  0  0  0
    3.8951   -1.1022   -0.3294 C   0  0  0  0  0  0  0  0  0  0  0  0
    3.3993    0.8759    0.9412 C   0  0  0  0  0  0  0  0  0  0  0  0
   -2.0085   -0.3927    0.9390 C   0  0  0  0  0  0  0  0  0  0  0  0
   -2.6696    0.1564   -0.3218 C   0  0  0  0  0  0  0  0  0  0  0  0
   -4.1793   -0.0659   -0.3061 C   0  0  0  0  0  0  0  0  0  0  0  0
   -4.8376    0.4938   -1.5569 C   0  0  0  0  0  0  0  0  0  0  0  0
   -1.8851    2.3058    0.6993 H   0  0  0  0  0  0  0  0  0  0  0  0
   -1.1755   -1.8860   -0.0561 H   0  0  0  0  0  0  0  0  0  0  0  0
   -5.4829   -0.9846   -1.6204 H   0  0  0  0  0  0  0  0  0  0  0  0
   -5.7629    0.6517   -1.3263 H   0  0  0  0  0  0  0  0  0  0  0  0
   -4.0538    2.1336   -0.4458 H   0  0  0  0  0  0  0  0  0  0  0  0
   -3.3399   -2.0395   -1.1936 H   0  0  0  0  0  0  0  0  0  0  0  0
    1.8667   -1.6401    2.5311 H   0  0  0  0  0  0  0  0  0  0  0  0
    2.0550    0.1053    2.3986 H   0  0  0  0  0  0  0  0  0  0  0  0
    3.9192   -1.1774    1.3030 H   0  0  0  0  0  0  0  0  0  0  0  0
    2.7493   -1.9548    0.2268 H   0  0  0  0  0  0  0  0  0  0  0  0
    2.1558    0.2392   -0.7733 H   0  0  0  0  0  0  0  0  0  0  0  0
    3.2567    1.0615    0.3351 H   0  0  0  0  0  0  0  0  0  0  0  0
    4.2998    0.7387   -1.8846 H   0  0  0  0  0  0  0  0  0  0  0  0
    4.0749   -1.0150   -1.7663 H   0  0  0  0  0  0  0  0  0  0  0  0
    5.1860   -0.1843   -0.6588 H   0  0  0  0  0  0  0  0  0  0  0  0
    1.6727    1.8788    0.3862 H   0  0  0  0  0  0  0  0  0  0  0  0
   -2.4537    0.8350   -0.4137 H   0  0  0  0  0  0  0  0  0  0  0  0
    1.4569   -2.7702    0.1626 H   0  0  0  0  0  0  0  0  0  0  0  0
    2.2169   -2.3456   -0.8507 H   0  0  0  0  0  0  0  0  0  0  0  0
    1.3365    1.2132    1.4296 H   0  0  0  0  0  0  0  0  0  0  0  0
    5.9845    1.0530    0.9903 H   0  0  0  0  0  0  0  0  0  0  0  0
    6.3295   -0.3271    0.0844 H   0  0  0  0  0  0  0  0  0  0  0  0
    4.5989   -1.7345   -0.8647 H   0  0  0  0  0  0  0  0  0  0  0  0
    3.7142    1.8058    1.4081 H   0  0  0  0  0  0  0  0  0  0  0  0
   -2.1984   -1.4653    1.0668 H   0  0  0  0  0  0  0  0  0  0  0  0
   -2.4131    0.1112    1.8238 H   0  0  0  0  0  0  0  0  0  0  0  0
   -2.4436    1.2265   -0.4105 H   0  0  0  0  0  0  0  0  0  0  0  0
   -2.2292   -0.3172   -1.2076 H   0  0  0  0  0  0  0  0  0  0  0  0
   -4.6180    0.4139    0.5763 H   0  0  0  0  0  0  0  0  0  0  0  0
   -4.3968   -1.1376   -0.2346 H   0  0  0  0  0  0  0  0  0  0  0  0
   -4.6669    1.5719   -1.6415 H   0  0  0  0  0  0  0  0  0  0  0  0
   -5.9182    0.3219   -1.5256 H   0  0  0  0  0  0  0  0  0  0  0  0
   -4.4432    0.0117   -2.4573 H   0  0  0  0  0  0  0  0  0  0  0  0
  2  1  1  0
  3  1  2  0
  4  2  2  0
  5  2  1  0
  6 10  1  0
  7  1  1  0
  8  6  1  0
  9  4  1  0
 10  5  2  0
 11  7  1  0
 12 11  1  0
 13 12  1  0
 14 13  1  0
  9  6  2  0
 16 17  1  0
 17 15  2  0
 18 15  1  0
 19 16  1  0
 20 21  1  0
 21 23  2  0
 22 21  1  0
 23 15  1  0
 24 18  1  0
 25 19  1  0
 26 20  1  0
 27 18  2  0
 28 19  2  0
 29 20  2  0
 30 17  1  0
 22 16  2  0
 32 31  1  0
 33 31  2  0
 34 32  2  0
 35 32  1  0
 36 40  1  0
 37 31  1  0
 38 36  1  0
 39 34  1  0
 40 35  2  0
 41 37  1  0
 42 41  1  0
 43 42  1  0
 44 43  1  0
 39 36  2  0
  4 45  1  0
  5 46  1  0
  8 47  1  0
  8 48  1  0
  9 49  1  0
 10 50  1  0
 11 51  1  0
 11 52  1  0
 12 53  1  0
 12 54  1  0
 13 55  1  0
 13 56  1  0
 14 57  1  0
 14 58  1  0
 14 59  1  0
 22 60  1  0
 23 61  1  0
 30 62  1  0
 34 63  1  0
 35 64  1  0
 38 65  1  0
 38 66  1  0
 39 67  1  0
 40 68  1  0
 41 69  1  0
 41 70  1  0
 42 71  1  0
 42 72  1  0
 43 73  1  0
 43 74  1  0
 44 75  1  0
 44 76  1  0
 44 77  1  0
M  CHG  6  18   1  19   1  20   1  24  -1  25  -1  26  -1
M  END
$$$$
