
     RDKit          3D

 77 77  0  0  0  0  0  0  0  0999 V2000
    0.2368    1.0736   -0.1025 C   0  0  0  0  0  0  0  0  0  0  0  0
    1.6595    0.6446   -0.0218 C   0  0  0  0  0  0  0  0  0  0  0  0
   -0.1239    2.2370   -0.0175 O   0  0  0  0  0  0  0  0  0  0  0  0
    2.0529   -0.6916   -0.1590 C   0  0  0  0  0  0  0  0  0  0  0  0
    2.6376    1.6260    0.1765 C   0  0  0  0  0  0  0  0  0  0  0  0
    4.3802   -0.0676    0.1750 C   0  0  0  0  0  0  0  0  0  0  0  0
   -0.5764    0.0023   -0.2779 O   0  0  0  0  0  0  0  0  0  0  0  0
    5.7369   -0.4024    0.1289 N   0  0  0  0  0  0  0  0  0  0  0  0
    3.4071   -1.0368   -0.0813 C   0  0  0  0  0  0  0  0  0  0  0  0
    3.9883    1.2708    0.2527 C   0  0  0  0  0  0  0  0  0  0  0  0
   -1.9703    0.3300   -0.3746 C   0  0  0  0  0  0  0  0  0  0  0  0
   -2.7446   -0.9714   -0.5577 C   0  0  0  0  0  0  0  0  0  0  0  0
   -4.2407   -0.7679   -0.7899 C   0  0  0  0  0  0  0  0  0  0  0  0
   -4.9598   -0.1475    0.3979 C   0  0  0  0  0  0  0  0  0  0  0  0
    0.1745    1.3171   -0.1755 C   0  0  0  0  0  0  0  0  0  0  0  0
   -1.0533   -0.7147    0.1893 C   0  0  0  0  0  0  0  0  0  0  0  0
   -1.0563    0.6804    0.0253 C   0  0  0  0  0  0  0  0  0  0  0  0
    0.2187    2.7519   -0.3555 N   0  0  0  0  0  0  0  0  0  0  0  0
   -2.3050   -1.4522    0.4035 N   0  0  0  0  0  0  0  0  0  0  0  0
    2.6283   -1.5192   -0.0790 N   0  0  0  0  0  0  0  0  0  0  0  0
    1.3678   -0.7633   -0.0448 C   0  0  0  0  0  0  0  0  0  0  0  0
    0.1543   -1.4413    0.1544 C   0  0  0  0  0  0  0  0  0  0  0  0
    1.3904    0.6241   -0.2115 C   0  0  0  0  0  0  0  0  0  0  0  0
   -0.0200    3.1795   -1.4913 O   0  0  0  0  0  0  0  0  0  0  0  0
   -2.2376   -2.6789    0.5454 O   0  0  0  0  0  0  0  0  0  0  0  0
    2.5673   -2.7399    0.1121 O   0  0  0  0  0  0  0  0  0  0  0  0
    0.5578    3.4224    0.6272 O   0  0  0  0  0  0  0  0  0  0  0  0
   -3.3548   -0.7931    0.4291 O   0  0  0  0  0  0  0  0  0  0  0  0
    3.6678   -0.8849   -0.2975 O   0  0  0  0  0  0  0  0  0  0  0  0
   -2.1816    1.4560    0.0594 O   0  0  0  0  0  0  0  0  0  0  0  0
   -0.4448   -0.5302    1.0188 C   0  0  0  0  0  0  0  0  0  0  0  0
   -1.7547   -0.2066    0.3911 C   0  0  0  0  0  0  0  0  0  0  0  0
   -0.3324   -1.0582    2.1140 O   0  0  0  0  0  0  0  0  0  0  0  0
   -2.9230   -0.5338    1.0889 C   0  0  0  0  0  0  0  0  0  0  0  0
   -1.8587    0.4257   -0.8531 C   0  0  0  0  0  0  0  0  0  0  0  0
   -4.2862    0.3291   -0.7284 C   0  0  0  0  0  0  0  0  0  0  0  0
    0.5779   -0.1636    0.2065 O   0  0  0  0  0  0  0  0  0  0  0  0
   -5.5357    0.7216   -1.2184 N   0  0  0  0  0  0  0  0  0  0  0  0
   -4.1770   -0.2473    0.5391 C   0  0  0  0  0  0  0  0  0  0  0  0
   -3.1182    0.7079   -1.3948 C   0  0  0  0  0  0  0  0  0  0  0  0
    1.8815   -0.4444    0.7367 C   0  0  0  0  0  0  0  0  0  0  0  0
    2.9114   -0.0089   -0.3005 C   0  0  0  0  0  0  0  0  0  0  0  0
    4.3509   -0.3407    0.0885 C   0  0  0  0  0  0  0  0  0  0  0  0
    4.8354    0.4144    1.3163 C   0  0  0  0  0  0  0  0  0  0  0  0
    1.3219   -1.4748   -0.3424 H   0  0  0  0  0  0  0  0  0  0  0  0
    2.3559    2.6741    0.2584 H   0  0  0  0  0  0  0  0  0  0  0  0
    5.9356   -1.3658    0.3801 H   0  0  0  0  0  0  0  0  0  0  0  0
    6.3420    0.2544    0.6118 H   0  0  0  0  0  0  0  0  0  0  0  0
    3.6952   -2.0754   -0.2249 H   0  0  0  0  0  0  0  0  0  0  0  0
    4.7328    2.0538    0.3735 H   0  0  0  0  0  0  0  0  0  0  0  0
   -2.1299    0.9886   -1.2362 H   0  0  0  0  0  0  0  0  0  0  0  0
   -2.2840    0.8387    0.5435 H   0  0  0  0  0  0  0  0  0  0  0  0
   -2.3230   -1.5179   -1.4110 H   0  0  0  0  0  0  0  0  0  0  0  0
   -2.5814   -1.6186    0.3131 H   0  0  0  0  0  0  0  0  0  0  0  0
   -4.6954   -1.7427   -1.0030 H   0  0  0  0  0  0  0  0  0  0  0  0
   -4.3985   -0.1443   -1.6776 H   0  0  0  0  0  0  0  0  0  0  0  0
   -4.7912   -0.7313    1.3084 H   0  0  0  0  0  0  0  0  0  0  0  0
   -6.0377   -0.1170    0.2096 H   0  0  0  0  0  0  0  0  0  0  0  0
   -4.6260    0.8789    0.5769 H   0  0  0  0  0  0  0  0  0  0  0  0
    0.1498   -2.5248    0.2828 H   0  0  0  0  0  0  0  0  0  0  0  0
    2.3236    1.1650   -0.3663 H   0  0  0  0  0  0  0  0  0  0  0  0
   -2.9917    0.9157    0.1929 H   0  0  0  0  0  0  0  0  0  0  0  0
   -2.8647   -1.0012    2.0700 H   0  0  0  0  0  0  0  0  0  0  0  0
   -0.9717    0.7185   -1.4087 H   0  0  0  0  0  0  0  0  0  0  0  0
   -5.5687    0.8341   -2.2267 H   0  0  0  0  0  0  0  0  0  0  0  0
   -6.3102    0.1664   -0.8678 H   0  0  0  0  0  0  0  0  0  0  0  0
   -5.0698   -0.4811    1.1135 H   0  0  0  0  0  0  0  0  0  0  0  0
   -3.1776    1.2290   -2.3470 H   0  0  0  0  0  0  0  0  0  0  0  0
    2.0144    0.1130    1.6699 H   0  0  0  0  0  0  0  0  0  0  0  0
    1.9737   -1.5191    0.9311 H   0  0  0  0  0  0  0  0  0  0  0  0
    2.8083    1.0671   -0.4886 H   0  0  0  0  0  0  0  0  0  0  0  0
    2.6792   -0.4965   -1.2558 H   0  0  0  0  0  0  0  0  0  0  0  0
    4.4519   -1.4187    0.2599 H   0  0  0  0  0  0  0  0  0  0  0  0
    5.0057   -0.0914   -0.7550 H   0  0  0  0  0  0  0  0  0  0  0  0
    5.8956    0.2055    1.4911 H   0  0  0  0  0  0  0  0  0  0  0  0
    4.7208    1.4949    1.1838 H   0  0  0  0  0  0  0  0  0  0  0  0
    4.2870    0.1143    2.2139 H   0  0  0  0  0  0  0  0  0  0  0  0
  2  1  1  0
  3  1  2  0
  4  2  2  0
  5  2  1  0
  6 10  1  0
  7  1  1  0
  8  6  1  0
  9  4  1  0
 10  5  2  0
 11  7  1  0
 12 11  1  0
 13 12  1  0
 14 13  1  0
  9  6  2  0
 16 17  1  0
 17 15  2  0
 18 15  1  0
 19 16  1  0
 20 21  1  0
 21 23  2  0
 22 21  1  0
 23 15  1  0
 24 18  1  0
 25 19  1  0
 26 20  1  0
 27 18  2  0
 28 19  2  0
 29 20  2  0
 30 17  1  0
 22 16  2  0
 32 31  1  0
 33 31  2  0
 34 32  2  0
 35 32  1  0
 36 40  1  0
 37 31  1  0
 38 36  1  0
 39 34  1  0
 40 35  2  0
 41 37  1  0
 42 41  1  0
 43 42  1  0
 44 43  1  0
 39 36  2  0
  4 45  1  0
  5 46  1  0
  8 47  1  0
  8 48  1  0
  9 49  1  0
 10 50  1  0
 11 51  1  0
 11 52  1  0
 12 53  1  0
 12 54  1  0
 13 55  1  0
 13 56  1  0
 14 57  1  0
 14 58  1  0
 14 59  1  0
 22 60  1  0
 23 61  1  0
 30 62  1  0
 34 63  1  0
 35 64  1  0
 38 65  1  0
 38 66  1  0
 39 67  1  0
 40 68  1  0
 41 69  1  0
 41 70  1  0
 42 71  1  0
 42 72  1  0
 43 73  1  0
 43 74  1  0
 44 75  1  0
 44 76  1  0
 44 77  1  0
M  CHG  6  18   1  19   1  20   1  24  -1  25  -1  26  -1
M  END
$$$$
