
     RDKit          3D

 44 44  0  0  0  0  0  0  0  0999 V2000
    0.5975   -0.3411   -0.9960 C   0  0  0  0  0  0  0  0  0  0  0  0
   -0.7381    0.1144   -0.6467 C   0  0  0  0  0  0  0  0  0  0  0  0
    1.4005    0.3491   -1.6971 O   0  0  0  0  0  0  0  0  0  0  0  0
   -1.6011   -0.6478    0.1172 C   0  0  0  0  0  0  0  0  0  0  0  0
   -1.1189    1.3689   -1.1199 C   0  0  0  0  0  0  0  0  0  0  0  0
   -3.2406    1.1158   -0.0674 C   0  0  0  0  0  0  0  0  0  0  0  0
    1.0666   -1.5862   -0.5661 O   0  0  0  0  0  0  0  0  0  0  0  0
   -4.5499    1.5648    0.2738 N   0  0  0  0  0  0  0  0  0  0  0  0
   -2.8542   -0.1280    0.3978 C   0  0  0  0  0  0  0  0  0  0  0  0
   -2.3799    1.8971   -0.8400 C   0  0  0  0  0  0  0  0  0  0  0  0
    2.3800   -2.0187   -0.9174 C   0  0  0  0  0  0  0  0  0  0  0  0
    3.3476   -1.0270   -0.3602 C   0  0  0  0  0  0  0  0  0  0  0  0
    3.3184   -0.8550    1.1234 C   0  0  0  0  0  0  0  0  0  0  0  0
    4.3721    0.1936    1.4968 C   0  0  0  0  0  0  0  0  0  0  0  0
   -0.2648    1.2518    0.3061 C   0  0  0  0  0  0  0  0  0  0  0  0
    1.1241   -0.6817    0.3616 C   0  0  0  0  0  0  0  0  0  0  0  0
    0.9826    0.6847    0.4114 C   0  0  0  0  0  0  0  0  0  0  0  0
   -0.4864    2.6631    0.3494 N   0  0  0  0  0  0  0  0  0  0  0  0
    2.4593   -1.2115    0.4776 N   0  0  0  0  0  0  0  0  0  0  0  0
   -2.3751   -1.7902   -0.0626 N   0  0  0  0  0  0  0  0  0  0  0  0
   -1.2284   -0.9492    0.0997 C   0  0  0  0  0  0  0  0  0  0  0  0
    0.0484   -1.5073    0.2085 C   0  0  0  0  0  0  0  0  0  0  0  0
   -1.3571    0.4240    0.1511 C   0  0  0  0  0  0  0  0  0  0  0  0
   -1.5302    3.1903   -0.3720 O   0  0  0  0  0  0  0  0  0  0  0  0
    3.5455   -0.4423    0.0711 O   0  0  0  0  0  0  0  0  0  0  0  0
   -3.6211   -1.1891   -0.1644 O   0  0  0  0  0  0  0  0  0  0  0  0
    0.2697    3.4083    1.0424 O   0  0  0  0  0  0  0  0  0  0  0  0
    2.5909   -2.3555    0.9446 O   0  0  0  0  0  0  0  0  0  0  0  0
   -2.2200   -3.0206   -0.1070 O   0  0  0  0  0  0  0  0  0  0  0  0
    2.0627    1.5252    0.5655 O   0  0  0  0  0  0  0  0  0  0  0  0
    0.2298   -0.6927   -0.0728 C   0  0  0  0  0  0  0  0  0  0  0  0
   -0.9926    0.1126   -0.2527 C   0  0  0  0  0  0  0  0  0  0  0  0
    0.2243   -1.7425    0.6320 O   0  0  0  0  0  0  0  0  0  0  0  0
   -0.9705    1.2735   -1.0368 C   0  0  0  0  0  0  0  0  0  0  0  0
   -2.1585   -0.2917    0.3609 C   0  0  0  0  0  0  0  0  0  0  0  0
   -3.3018    1.6049   -0.5731 C   0  0  0  0  0  0  0  0  0  0  0  0
    1.4008   -0.2678   -0.7018 O   0  0  0  0  0  0  0  0  0  0  0  0
   -4.4871    2.3748   -0.7401 N   0  0  0  0  0  0  0  0  0  0  0  0
   -2.1421    2.0233   -1.1944 C   0  0  0  0  0  0  0  0  0  0  0  0
   -3.3402    0.4476    0.2133 C   0  0  0  0  0  0  0  0  0  0  0  0
    2.6322   -0.9676   -0.5953 C   0  0  0  0  0  0  0  0  0  0  0  0
    3.0880   -1.0584    0.8389 C   0  0  0  0  0  0  0  0  0  0  0  0
    4.3904   -1.7936    0.9930 C   0  0  0  0  0  0  0  0  0  0  0  0
    5.4272   -1.0224    0.1845 C   0  0  0  0  0  0  0  0  0  0  0  0
  2  1  1  0
  3  1  2  0
  4  2  2  0
  5  2  1  0
  6 10  1  0
  7  1  1  0
  8  6  1  0
  9  4  1  0
 10  5  2  0
 11  7  1  0
 12 11  1  0
 13 12  1  0
 14 13  1  0
  9  6  2  0
 16 17  1  0
 17 15  2  0
 18 15  1  0
 19 16  1  0
 20 21  1  0
 21 23  2  0
 22 21  1  0
 23 15  1  0
 24 18  1  0
 25 19  1  0
 26 20  1  0
 27 18  2  0
 28 19  2  0
 29 20  2  0
 30 17  1  0
 22 16  2  0
 32 31  1  0
 33 31  2  0
 34 32  2  0
 35 32  1  0
 36 40  1  0
 37 31  1  0
 38 36  1  0
 39 34  1  0
 40 35  2  0
 41 37  1  0
 42 41  1  0
 43 42  1  0
 44 43  1  0
 39 36  2  0
M  CHG  6  18   1  19   1  20   1  24  -1  25  -1  26  -1
M  END
