
     RDKit          3D

 77 77  0  0  0  0  0  0  0  0999 V2000
   -0.0183    0.4028   -1.3711 C   0  0  0  0  0  0  0  0  0  0  0  0
   -1.3656    0.1975   -0.7728 C   0  0  0  0  0  0  0  0  0  0  0  0
    0.2858    1.3887   -2.0236 O   0  0  0  0  0  0  0  0  0  0  0  0
   -1.6846   -0.9256   -0.0008 C   0  0  0  0  0  0  0  0  0  0  0  0
   -2.3388    1.1824   -0.9770 C   0  0  0  0  0  0  0  0  0  0  0  0
   -3.9588   -0.1124    0.2896 C   0  0  0  0  0  0  0  0  0  0  0  0
    0.7934   -0.6451   -1.0845 O   0  0  0  0  0  0  0  0  0  0  0  0
   -5.1972   -0.1983    0.9332 N   0  0  0  0  0  0  0  0  0  0  0  0
   -2.9677   -1.0645    0.5410 C   0  0  0  0  0  0  0  0  0  0  0  0
   -3.6179    1.0350   -0.4303 C   0  0  0  0  0  0  0  0  0  0  0  0
    2.1317   -0.5579   -1.5963 C   0  0  0  0  0  0  0  0  0  0  0  0
    3.0343    0.2288   -0.6478 C   0  0  0  0  0  0  0  0  0  0  0  0
    3.1054   -0.4054    0.7430 C   0  0  0  0  0  0  0  0  0  0  0  0
    4.0451    0.3647    1.6575 C   0  0  0  0  0  0  0  0  0  0  0  0
   -1.0523   -0.8249    0.2238 C   0  0  0  0  0  0  0  0  0  0  0  0
    1.2680   -0.2171    0.1001 C   0  0  0  0  0  0  0  0  0  0  0  0
    0.2907   -1.2206    0.2032 C   0  0  0  0  0  0  0  0  0  0  0  0
   -2.0937   -1.8248    0.3209 N   0  0  0  0  0  0  0  0  0  0  0  0
    2.6969   -0.5550    0.0718 N   0  0  0  0  0  0  0  0  0  0  0  0
   -0.8441    2.9130   -0.0251 N   0  0  0  0  0  0  0  0  0  0  0  0
   -0.4583    1.4964    0.0530 C   0  0  0  0  0  0  0  0  0  0  0  0
    0.8999    1.1416    0.0238 C   0  0  0  0  0  0  0  0  0  0  0  0
   -1.4491    0.5160    0.1540 C   0  0  0  0  0  0  0  0  0  0  0  0
   -2.6253   -1.9637    1.4293 O   0  0  0  0  0  0  0  0  0  0  0  0
    3.5107    0.3736    0.0066 O   0  0  0  0  0  0  0  0  0  0  0  0
    0.0651    3.7497   -0.0840 O   0  0  0  0  0  0  0  0  0  0  0  0
   -2.4095   -2.4057   -0.7244 O   0  0  0  0  0  0  0  0  0  0  0  0
    2.9969   -1.7574    0.1158 O   0  0  0  0  0  0  0  0  0  0  0  0
   -2.0531    3.1755   -0.0279 O   0  0  0  0  0  0  0  0  0  0  0  0
    0.5673   -2.5562    0.2970 O   0  0  0  0  0  0  0  0  0  0  0  0
   -0.3035    1.0603   -0.0792 C   0  0  0  0  0  0  0  0  0  0  0  0
   -1.6920    0.5433   -0.2183 C   0  0  0  0  0  0  0  0  0  0  0  0
   -0.0169    2.2463   -0.1222 O   0  0  0  0  0  0  0  0  0  0  0  0
   -1.9951   -0.8227   -0.1832 C   0  0  0  0  0  0  0  0  0  0  0  0
   -2.7267    1.4659   -0.4110 C   0  0  0  0  0  0  0  0  0  0  0  0
   -4.3619   -0.3310   -0.4551 C   0  0  0  0  0  0  0  0  0  0  0  0
    0.5711    0.0394    0.1020 O   0  0  0  0  0  0  0  0  0  0  0  0
   -5.6633   -0.7721   -0.7138 N   0  0  0  0  0  0  0  0  0  0  0  0
   -3.3200   -1.2521   -0.3221 C   0  0  0  0  0  0  0  0  0  0  0  0
   -4.0476    1.0267   -0.5491 C   0  0  0  0  0  0  0  0  0  0  0  0
    1.9376    0.4532    0.2465 C   0  0  0  0  0  0  0  0  0  0  0  0
    2.7843   -0.7969    0.4640 C   0  0  0  0  0  0  0  0  0  0  0  0
    4.2585   -0.4994    0.7316 C   0  0  0  0  0  0  0  0  0  0  0  0
    4.9726    0.1343   -0.4523 C   0  0  0  0  0  0  0  0  0  0  0  0
   -0.9443   -1.6949    0.2021 H   0  0  0  0  0  0  0  0  0  0  0  0
   -2.1035    2.0770   -1.5503 H   0  0  0  0  0  0  0  0  0  0  0  0
   -5.9362    0.3306    0.4806 H   0  0  0  0  0  0  0  0  0  0  0  0
   -5.4835   -1.1466    1.1551 H   0  0  0  0  0  0  0  0  0  0  0  0
   -3.1854   -1.9276    1.1651 H   0  0  0  0  0  0  0  0  0  0  0  0
   -4.3469    1.8285   -0.5741 H   0  0  0  0  0  0  0  0  0  0  0  0
    2.1383   -0.1167   -2.6001 H   0  0  0  0  0  0  0  0  0  0  0  0
    2.5016   -1.5838   -1.7009 H   0  0  0  0  0  0  0  0  0  0  0  0
    2.6604    1.2547   -0.5491 H   0  0  0  0  0  0  0  0  0  0  0  0
    4.0398    0.2868   -1.0806 H   0  0  0  0  0  0  0  0  0  0  0  0
    2.1088   -0.4314    1.1984 H   0  0  0  0  0  0  0  0  0  0  0  0
    3.4525   -1.4420    0.6616 H   0  0  0  0  0  0  0  0  0  0  0  0
    5.0619    0.3800    1.2522 H   0  0  0  0  0  0  0  0  0  0  0  0
    3.7093    1.3990    1.7835 H   0  0  0  0  0  0  0  0  0  0  0  0
    4.0805   -0.1040    2.6459 H   0  0  0  0  0  0  0  0  0  0  0  0
    1.6640    1.9164   -0.0562 H   0  0  0  0  0  0  0  0  0  0  0  0
   -2.5073    0.7749    0.1781 H   0  0  0  0  0  0  0  0  0  0  0  0
    1.5332   -2.7316    0.2473 H   0  0  0  0  0  0  0  0  0  0  0  0
   -1.2127   -1.5675   -0.0629 H   0  0  0  0  0  0  0  0  0  0  0  0
   -2.5098    2.5309   -0.4688 H   0  0  0  0  0  0  0  0  0  0  0  0
   -5.8739   -1.6893   -0.3330 H   0  0  0  0  0  0  0  0  0  0  0  0
   -6.3827   -0.0898   -0.4949 H   0  0  0  0  0  0  0  0  0  0  0  0
   -3.5304   -2.3187   -0.3254 H   0  0  0  0  0  0  0  0  0  0  0  0
   -4.8300    1.7591   -0.7310 H   0  0  0  0  0  0  0  0  0  0  0  0
    2.0272    1.1237    1.1091 H   0  0  0  0  0  0  0  0  0  0  0  0
    2.2498    0.9769   -0.6635 H   0  0  0  0  0  0  0  0  0  0  0  0
    2.3744   -1.3586    1.3133 H   0  0  0  0  0  0  0  0  0  0  0  0
    2.6834   -1.4623   -0.4027 H   0  0  0  0  0  0  0  0  0  0  0  0
    4.3544    0.1532    1.6072 H   0  0  0  0  0  0  0  0  0  0  0  0
    4.7639   -1.4402    0.9806 H   0  0  0  0  0  0  0  0  0  0  0  0
    6.0405    0.2383   -0.2347 H   0  0  0  0  0  0  0  0  0  0  0  0
    4.8685   -0.4828   -1.3503 H   0  0  0  0  0  0  0  0  0  0  0  0
    4.5805    1.1321   -0.6700 H   0  0  0  0  0  0  0  0  0  0  0  0
  2  1  1  0
  3  1  2  0
  4  2  2  0
  5  2  1  0
  6 10  1  0
  7  1  1  0
  8  6  1  0
  9  4  1  0
 10  5  2  0
 11  7  1  0
 12 11  1  0
 13 12  1  0
 14 13  1  0
  9  6  2  0
 16 17  1  0
 17 15  2  0
 18 15  1  0
 19 16  1  0
 20 21  1  0
 21 23  2  0
 22 21  1  0
 23 15  1  0
 24 18  1  0
 25 19  1  0
 26 20  1  0
 27 18  2  0
 28 19  2  0
 29 20  2  0
 30 17  1  0
 22 16  2  0
 32 31  1  0
 33 31  2  0
 34 32  2  0
 35 32  1  0
 36 40  1  0
 37 31  1  0
 38 36  1  0
 39 34  1  0
 40 35  2  0
 41 37  1  0
 42 41  1  0
 43 42  1  0
 44 43  1  0
 39 36  2  0
  4 45  1  0
  5 46  1  0
  8 47  1  0
  8 48  1  0
  9 49  1  0
 10 50  1  0
 11 51  1  0
 11 52  1  0
 12 53  1  0
 12 54  1  0
 13 55  1  0
 13 56  1  0
 14 57  1  0
 14 58  1  0
 14 59  1  0
 22 60  1  0
 23 61  1  0
 30 62  1  0
 34 63  1  0
 35 64  1  0
 38 65  1  0
 38 66  1  0
 39 67  1  0
 40 68  1  0
 41 69  1  0
 41 70  1  0
 42 71  1  0
 42 72  1  0
 43 73  1  0
 43 74  1  0
 44 75  1  0
 44 76  1  0
 44 77  1  0
M  CHG  6  18   1  19   1  20   1  24  -1  25  -1  26  -1
M  END
$$$$
