
     RDKit          3D

 77 77  0  0  0  0  0  0  0  0999 V2000
    0.2591   -0.5775   -0.6256 C   0  0  0  0  0  0  0  0  0  0  0  0
    1.6516   -0.3815   -0.1381 C   0  0  0  0  0  0  0  0  0  0  0  0
   -0.2137   -1.6718   -0.8889 O   0  0  0  0  0  0  0  0  0  0  0  0
    2.1730    0.8805    0.1698 C   0  0  0  0  0  0  0  0  0  0  0  0
    2.4601   -1.5113    0.0304 C   0  0  0  0  0  0  0  0  0  0  0  0
    4.3200   -0.1150    0.7330 C   0  0  0  0  0  0  0  0  0  0  0  0
   -0.3807    0.6139   -0.7320 O   0  0  0  0  0  0  0  0  0  0  0  0
    5.5940    0.0055    1.2968 N   0  0  0  0  0  0  0  0  0  0  0  0
    3.4917    1.0046    0.6220 C   0  0  0  0  0  0  0  0  0  0  0  0
    3.7769   -1.3771    0.4826 C   0  0  0  0  0  0  0  0  0  0  0  0
   -1.7297    0.5571   -1.2217 C   0  0  0  0  0  0  0  0  0  0  0  0
   -2.6989    0.3191   -0.0681 C   0  0  0  0  0  0  0  0  0  0  0  0
   -4.1482    0.3202   -0.5468 C   0  0  0  0  0  0  0  0  0  0  0  0
   -5.1168    0.0902    0.6021 C   0  0  0  0  0  0  0  0  0  0  0  0
   -0.6921   -1.1318    0.1953 C   0  0  0  0  0  0  0  0  0  0  0  0
   -0.3697    1.2056   -0.2568 C   0  0  0  0  0  0  0  0  0  0  0  0
   -1.2484    0.1242   -0.0766 C   0  0  0  0  0  0  0  0  0  0  0  0
   -1.5582   -2.2769    0.3813 N   0  0  0  0  0  0  0  0  0  0  0  0
   -0.8790    2.5519   -0.5472 N   0  0  0  0  0  0  0  0  0  0  0  0
    2.9967   -0.4415    0.2188 N   0  0  0  0  0  0  0  0  0  0  0  0
    1.5423   -0.2507    0.1182 C   0  0  0  0  0  0  0  0  0  0  0  0
    1.0251    1.0241   -0.1615 C   0  0  0  0  0  0  0  0  0  0  0  0
    0.6885   -1.3421    0.3004 C   0  0  0  0  0  0  0  0  0  0  0  0
   -2.0368   -2.7889   -0.6381 O   0  0  0  0  0  0  0  0  0  0  0  0
   -2.1079    2.6841   -0.6512 O   0  0  0  0  0  0  0  0  0  0  0  0
    3.7111    0.5647    0.1358 O   0  0  0  0  0  0  0  0  0  0  0  0
   -1.6913   -2.6865    1.5414 O   0  0  0  0  0  0  0  0  0  0  0  0
   -0.0576    3.4675   -0.6709 O   0  0  0  0  0  0  0  0  0  0  0  0
    3.4105   -1.5961    0.3780 O   0  0  0  0  0  0  0  0  0  0  0  0
   -2.6104    0.2235   -0.1359 O   0  0  0  0  0  0  0  0  0  0  0  0
    0.2179   -1.4410    0.0477 C   0  0  0  0  0  0  0  0  0  0  0  0
    1.4555   -0.6153    0.0530 C   0  0  0  0  0  0  0  0  0  0  0  0
    0.1934   -2.6242    0.3474 O   0  0  0  0  0  0  0  0  0  0  0  0
    1.4459    0.7595   -0.2081 C   0  0  0  0  0  0  0  0  0  0  0  0
    2.6695   -1.2426    0.3564 C   0  0  0  0  0  0  0  0  0  0  0  0
    3.8625    0.8534    0.0608 C   0  0  0  0  0  0  0  0  0  0  0  0
   -0.8489   -0.6979   -0.3381 O   0  0  0  0  0  0  0  0  0  0  0  0
    5.0312    1.6067    0.2045 N   0  0  0  0  0  0  0  0  0  0  0  0
    2.6413    1.4877   -0.1813 C   0  0  0  0  0  0  0  0  0  0  0  0
    3.8587   -0.5065    0.3781 C   0  0  0  0  0  0  0  0  0  0  0  0
   -2.0893   -1.4147   -0.3569 C   0  0  0  0  0  0  0  0  0  0  0  0
   -3.1986   -0.4861   -0.8458 C   0  0  0  0  0  0  0  0  0  0  0  0
   -3.3696    0.7912   -0.0175 C   0  0  0  0  0  0  0  0  0  0  0  0
   -3.7623    0.5281    1.4281 C   0  0  0  0  0  0  0  0  0  0  0  0
    1.5648    1.7765    0.0761 H   0  0  0  0  0  0  0  0  0  0  0  0
    2.0652   -2.5042   -0.1766 H   0  0  0  0  0  0  0  0  0  0  0  0
    6.0218    0.9158    1.1646 H   0  0  0  0  0  0  0  0  0  0  0  0
    6.2242   -0.7548    1.0603 H   0  0  0  0  0  0  0  0  0  0  0  0
    3.8682    1.9897    0.8858 H   0  0  0  0  0  0  0  0  0  0  0  0
    4.3746   -2.2719    0.6361 H   0  0  0  0  0  0  0  0  0  0  0  0
   -1.8327   -0.2041   -2.0043 H   0  0  0  0  0  0  0  0  0  0  0  0
   -1.9352    1.5258   -1.6902 H   0  0  0  0  0  0  0  0  0  0  0  0
   -2.5495    1.0932    0.6950 H   0  0  0  0  0  0  0  0  0  0  0  0
   -2.4651   -0.6337    0.4223 H   0  0  0  0  0  0  0  0  0  0  0  0
   -4.2917   -0.4629   -1.3003 H   0  0  0  0  0  0  0  0  0  0  0  0
   -4.3810    1.2785   -1.0259 H   0  0  0  0  0  0  0  0  0  0  0  0
   -5.0168    0.8712    1.3624 H   0  0  0  0  0  0  0  0  0  0  0  0
   -6.1481    0.1028    0.2363 H   0  0  0  0  0  0  0  0  0  0  0  0
   -4.9375   -0.8788    1.0783 H   0  0  0  0  0  0  0  0  0  0  0  0
    1.7026    1.8674   -0.3023 H   0  0  0  0  0  0  0  0  0  0  0  0
    1.0747   -2.3371    0.5192 H   0  0  0  0  0  0  0  0  0  0  0  0
   -2.9001    1.1386   -0.3480 H   0  0  0  0  0  0  0  0  0  0  0  0
    0.5174    1.2839   -0.4187 H   0  0  0  0  0  0  0  0  0  0  0  0
    2.6953   -2.3048    0.5909 H   0  0  0  0  0  0  0  0  0  0  0  0
    5.0314    2.4784   -0.3162 H   0  0  0  0  0  0  0  0  0  0  0  0
    5.8851    1.0745    0.0662 H   0  0  0  0  0  0  0  0  0  0  0  0
    2.6082    2.5606   -0.3538 H   0  0  0  0  0  0  0  0  0  0  0  0
    4.7841   -1.0091    0.6471 H   0  0  0  0  0  0  0  0  0  0  0  0
   -2.0076   -2.2655   -1.0442 H   0  0  0  0  0  0  0  0  0  0  0  0
   -2.3153   -1.7919    0.6469 H   0  0  0  0  0  0  0  0  0  0  0  0
   -2.9707   -0.1830   -1.8753 H   0  0  0  0  0  0  0  0  0  0  0  0
   -4.1451   -1.0386   -0.8741 H   0  0  0  0  0  0  0  0  0  0  0  0
   -4.1499    1.4039   -0.4855 H   0  0  0  0  0  0  0  0  0  0  0  0
   -2.4489    1.3852   -0.0413 H   0  0  0  0  0  0  0  0  0  0  0  0
   -3.9730    1.4743    1.9373 H   0  0  0  0  0  0  0  0  0  0  0  0
   -2.9581    0.0289    1.9772 H   0  0  0  0  0  0  0  0  0  0  0  0
   -4.6602   -0.0953    1.4847 H   0  0  0  0  0  0  0  0  0  0  0  0
  2  1  1  0
  3  1  2  0
  4  2  2  0
  5  2  1  0
  6 10  1  0
  7  1  1  0
  8  6  1  0
  9  4  1  0
 10  5  2  0
 11  7  1  0
 12 11  1  0
 13 12  1  0
 14 13  1  0
  9  6  2  0
 16 17  1  0
 17 15  2  0
 18 15  1  0
 19 16  1  0
 20 21  1  0
 21 23  2  0
 22 21  1  0
 23 15  1  0
 24 18  1  0
 25 19  1  0
 26 20  1  0
 27 18  2  0
 28 19  2  0
 29 20  2  0
 30 17  1  0
 22 16  2  0
 32 31  1  0
 33 31  2  0
 34 32  2  0
 35 32  1  0
 36 40  1  0
 37 31  1  0
 38 36  1  0
 39 34  1  0
 40 35  2  0
 41 37  1  0
 42 41  1  0
 43 42  1  0
 44 43  1  0
 39 36  2  0
  4 45  1  0
  5 46  1  0
  8 47  1  0
  8 48  1  0
  9 49  1  0
 10 50  1  0
 11 51  1  0
 11 52  1  0
 12 53  1  0
 12 54  1  0
 13 55  1  0
 13 56  1  0
 14 57  1  0
 14 58  1  0
 14 59  1  0
 22 60  1  0
 23 61  1  0
 30 62  1  0
 34 63  1  0
 35 64  1  0
 38 65  1  0
 38 66  1  0
 39 67  1  0
 40 68  1  0
 41 69  1  0
 41 70  1  0
 42 71  1  0
 42 72  1  0
 43 73  1  0
 43 74  1  0
 44 75  1  0
 44 76  1  0
 44 77  1  0
M  CHG  6  18   1  19   1  20   1  24  -1  25  -1  26  -1
M  END
$$$$
