
     RDKit          3D

 77 77  0  0  0  0  0  0  0  0999 V2000
    0.2380   -0.7359   -0.4189 C   0  0  0  0  0  0  0  0  0  0  0  0
    1.6474   -0.3066   -0.2081 C   0  0  0  0  0  0  0  0  0  0  0  0
   -0.0951   -1.9006   -0.5705 O   0  0  0  0  0  0  0  0  0  0  0  0
    2.0097    1.0341   -0.0335 C   0  0  0  0  0  0  0  0  0  0  0  0
    2.6457   -1.2876   -0.2053 C   0  0  0  0  0  0  0  0  0  0  0  0
    4.3443    0.3978    0.2180 C   0  0  0  0  0  0  0  0  0  0  0  0
   -0.5932    0.3361   -0.4112 O   0  0  0  0  0  0  0  0  0  0  0  0
    5.6926    0.7618    0.2856 N   0  0  0  0  0  0  0  0  0  0  0  0
    3.3526    1.3800    0.1572 C   0  0  0  0  0  0  0  0  0  0  0  0
    3.9851   -0.9317   -0.0149 C   0  0  0  0  0  0  0  0  0  0  0  0
   -1.9866    0.0489   -0.6161 C   0  0  0  0  0  0  0  0  0  0  0  0
   -2.6546   -0.2572    0.7217 C   0  0  0  0  0  0  0  0  0  0  0  0
   -4.1321   -0.6252    0.5959 C   0  0  0  0  0  0  0  0  0  0  0  0
   -4.9995    0.5157    0.0871 C   0  0  0  0  0  0  0  0  0  0  0  0
   -0.8587   -0.9254   -0.2498 C   0  0  0  0  0  0  0  0  0  0  0  0
   -0.1011    1.3363    0.0348 C   0  0  0  0  0  0  0  0  0  0  0  0
   -1.1442    0.4498   -0.2608 C   0  0  0  0  0  0  0  0  0  0  0  0
   -1.9018   -1.9154   -0.5480 N   0  0  0  0  0  0  0  0  0  0  0  0
   -0.3507    2.7619    0.0452 N   0  0  0  0  0  0  0  0  0  0  0  0
    2.8133   -0.9487    0.6381 N   0  0  0  0  0  0  0  0  0  0  0  0
    1.4586   -0.4668    0.3310 C   0  0  0  0  0  0  0  0  0  0  0  0
    1.1988    0.9064    0.3275 C   0  0  0  0  0  0  0  0  0  0  0  0
    0.4393   -1.3892    0.0460 C   0  0  0  0  0  0  0  0  0  0  0  0
   -1.5826   -3.1100   -0.5521 O   0  0  0  0  0  0  0  0  0  0  0  0
   -0.9100    3.2248    1.0466 O   0  0  0  0  0  0  0  0  0  0  0  0
    3.6742   -0.1004    0.9025 O   0  0  0  0  0  0  0  0  0  0  0  0
   -3.0424   -1.4867   -0.7771 O   0  0  0  0  0  0  0  0  0  0  0  0
    0.0790    3.4052   -0.9205 O   0  0  0  0  0  0  0  0  0  0  0  0
    3.0037   -2.1707    0.6133 O   0  0  0  0  0  0  0  0  0  0  0  0
   -2.3706    0.9776   -0.5551 O   0  0  0  0  0  0  0  0  0  0  0  0
    0.0687    0.0524   -0.7257 C   0  0  0  0  0  0  0  0  0  0  0  0
    1.5418    0.0688   -0.5139 C   0  0  0  0  0  0  0  0  0  0  0  0
   -0.4724   -0.5414   -1.6449 O   0  0  0  0  0  0  0  0  0  0  0  0
    2.3489   -0.6344   -1.4156 C   0  0  0  0  0  0  0  0  0  0  0  0
    2.1426    0.7407    0.5569 C   0  0  0  0  0  0  0  0  0  0  0  0
    4.3464    0.0689   -0.2238 C   0  0  0  0  0  0  0  0  0  0  0  0
   -0.5588    0.7789    0.2328 O   0  0  0  0  0  0  0  0  0  0  0  0
    5.7216   -0.0478    0.0009 N   0  0  0  0  0  0  0  0  0  0  0  0
    3.7386   -0.6494   -1.2559 C   0  0  0  0  0  0  0  0  0  0  0  0
    3.5340    0.7202    0.7078 C   0  0  0  0  0  0  0  0  0  0  0  0
   -1.9914    0.8401    0.1323 C   0  0  0  0  0  0  0  0  0  0  0  0
   -2.6124   -0.3582    0.8454 C   0  0  0  0  0  0  0  0  0  0  0  0
   -4.1377   -0.3041    0.9127 C   0  0  0  0  0  0  0  0  0  0  0  0
   -4.8062   -0.4160   -0.4487 C   0  0  0  0  0  0  0  0  0  0  0  0
    1.2635    1.8239   -0.0566 H   0  0  0  0  0  0  0  0  0  0  0  0
    2.3891   -2.3332   -0.3656 H   0  0  0  0  0  0  0  0  0  0  0  0
    6.3037    0.0258    0.6260 H   0  0  0  0  0  0  0  0  0  0  0  0
    5.8606    1.6482    0.7508 H   0  0  0  0  0  0  0  0  0  0  0  0
    3.6168    2.4299    0.2576 H   0  0  0  0  0  0  0  0  0  0  0  0
    4.7462   -1.7069   -0.0508 H   0  0  0  0  0  0  0  0  0  0  0  0
   -2.4224    0.9461   -1.0664 H   0  0  0  0  0  0  0  0  0  0  0  0
   -2.1196   -0.7683   -1.3349 H   0  0  0  0  0  0  0  0  0  0  0  0
   -2.5338    0.6016    1.3938 H   0  0  0  0  0  0  0  0  0  0  0  0
   -2.1260   -1.0856    1.2093 H   0  0  0  0  0  0  0  0  0  0  0  0
   -4.5002   -0.9293    1.5830 H   0  0  0  0  0  0  0  0  0  0  0  0
   -4.2452   -1.4923   -0.0650 H   0  0  0  0  0  0  0  0  0  0  0  0
   -4.7488    0.7812   -0.9440 H   0  0  0  0  0  0  0  0  0  0  0  0
   -4.8841    1.4063    0.7125 H   0  0  0  0  0  0  0  0  0  0  0  0
   -6.0542    0.2227    0.1061 H   0  0  0  0  0  0  0  0  0  0  0  0
    1.9793    1.6348    0.5462 H   0  0  0  0  0  0  0  0  0  0  0  0
    0.6545   -2.4588    0.0529 H   0  0  0  0  0  0  0  0  0  0  0  0
   -3.0384    0.2754   -0.7207 H   0  0  0  0  0  0  0  0  0  0  0  0
    1.9007   -1.1864   -2.2396 H   0  0  0  0  0  0  0  0  0  0  0  0
    1.5439    1.2732    1.2913 H   0  0  0  0  0  0  0  0  0  0  0  0
    6.1196    0.7146    0.5403 H   0  0  0  0  0  0  0  0  0  0  0  0
    6.2612   -0.2505   -0.8349 H   0  0  0  0  0  0  0  0  0  0  0  0
    4.3421   -1.2296   -1.9493 H   0  0  0  0  0  0  0  0  0  0  0  0
    3.9784    1.2204    1.5647 H   0  0  0  0  0  0  0  0  0  0  0  0
   -2.3026    0.9103   -0.9158 H   0  0  0  0  0  0  0  0  0  0  0  0
   -2.3017    1.7696    0.6218 H   0  0  0  0  0  0  0  0  0  0  0  0
   -2.2920   -1.2888    0.3614 H   0  0  0  0  0  0  0  0  0  0  0  0
   -2.2118   -0.4065    1.8659 H   0  0  0  0  0  0  0  0  0  0  0  0
   -4.4576    0.6232    1.4020 H   0  0  0  0  0  0  0  0  0  0  0  0
   -4.4879   -1.1313    1.5416 H   0  0  0  0  0  0  0  0  0  0  0  0
   -5.8937   -0.4597   -0.3304 H   0  0  0  0  0  0  0  0  0  0  0  0
   -4.4859   -1.3234   -0.9705 H   0  0  0  0  0  0  0  0  0  0  0  0
   -4.5765    0.4464   -1.0811 H   0  0  0  0  0  0  0  0  0  0  0  0
  2  1  1  0
  3  1  2  0
  4  2  2  0
  5  2  1  0
  6 10  1  0
  7  1  1  0
  8  6  1  0
  9  4  1  0
 10  5  2  0
 11  7  1  0
 12 11  1  0
 13 12  1  0
 14 13  1  0
  9  6  2  0
 16 17  1  0
 17 15  2  0
 18 15  1  0
 19 16  1  0
 20 21  1  0
 21 23  2  0
 22 21  1  0
 23 15  1  0
 24 18  1  0
 25 19  1  0
 26 20  1  0
 27 18  2  0
 28 19  2  0
 29 20  2  0
 30 17  1  0
 22 16  2  0
 32 31  1  0
 33 31  2  0
 34 32  2  0
 35 32  1  0
 36 40  1  0
 37 31  1  0
 38 36  1  0
 39 34  1  0
 40 35  2  0
 41 37  1  0
 42 41  1  0
 43 42  1  0
 44 43  1  0
 39 36  2  0
  4 45  1  0
  5 46  1  0
  8 47  1  0
  8 48  1  0
  9 49  1  0
 10 50  1  0
 11 51  1  0
 11 52  1  0
 12 53  1  0
 12 54  1  0
 13 55  1  0
 13 56  1  0
 14 57  1  0
 14 58  1  0
 14 59  1  0
 22 60  1  0
 23 61  1  0
 30 62  1  0
 34 63  1  0
 35 64  1  0
 38 65  1  0
 38 66  1  0
 39 67  1  0
 40 68  1  0
 41 69  1  0
 41 70  1  0
 42 71  1  0
 42 72  1  0
 43 73  1  0
 43 74  1  0
 44 75  1  0
 44 76  1  0
 44 77  1  0
M  CHG  6  18   1  19   1  20   1  24  -1  25  -1  26  -1
M  END
$$$$
