
     RDKit          3D

 41 43  0  0  0  0  0  0  0  0999 V2000
   -0.4395   -0.3696   -0.2249 C   0  0  0  0  0  0  0  0  0  0  0  0
   -0.5964    1.0721    0.2643 C   0  0  0  0  0  0  0  0  0  0  0  0
   -1.3645   -1.2856    0.5833 C   0  0  0  0  0  0  0  0  0  0  0  0
   -2.9655    1.1103   -0.6398 C   0  0  0  0  0  0  0  0  0  0  0  0
   -3.3809   -0.1557   -0.4608 C   0  0  0  0  0  0  0  0  0  0  0  0
   -1.8175    1.7475    0.0305 C   0  0  0  0  0  0  0  0  0  0  0  0
   -2.7654   -1.1536    0.4335 C   0  0  0  0  0  0  0  0  0  0  0  0
    4.1110   -0.7513   -0.6119 N   0  0  0  0  0  0  0  0  0  0  0  0
    1.0149   -0.8961   -0.3729 C   0  0  0  0  0  0  0  0  0  0  0  0
    0.4142    1.7440    0.9746 C   0  0  0  0  0  0  0  0  0  0  0  0
   -0.8718   -2.2415    1.4897 C   0  0  0  0  0  0  0  0  0  0  0  0
   -1.9646    3.0830    0.4367 C   0  0  0  0  0  0  0  0  0  0  0  0
   -3.6239   -2.0118    1.1379 C   0  0  0  0  0  0  0  0  0  0  0  0
    3.1836   -0.7905   -1.7417 C   0  0  0  0  0  0  0  0  0  0  0  0
    4.5480    0.5965   -0.2817 C   0  0  0  0  0  0  0  0  0  0  0  0
    1.7974   -0.1826   -1.4880 C   0  0  0  0  0  0  0  0  0  0  0  0
    0.2474    3.0676    1.3872 C   0  0  0  0  0  0  0  0  0  0  0  0
   -1.7398   -3.0770    2.1954 C   0  0  0  0  0  0  0  0  0  0  0  0
   -3.1138   -2.9682    2.0143 C   0  0  0  0  0  0  0  0  0  0  0  0
   -0.9365    3.7404    1.1097 C   0  0  0  0  0  0  0  0  0  0  0  0
   -0.8144   -0.3979   -1.2599 H   0  0  0  0  0  0  0  0  0  0  0  0
   -3.5335    1.7543   -1.3076 H   0  0  0  0  0  0  0  0  0  0  0  0
   -4.2695   -0.4905   -0.9915 H   0  0  0  0  0  0  0  0  0  0  0  0
    3.6960   -1.1921    0.2064 H   0  0  0  0  0  0  0  0  0  0  0  0
    0.9800   -1.9636   -0.6305 H   0  0  0  0  0  0  0  0  0  0  0  0
    1.5537   -0.8264    0.5781 H   0  0  0  0  0  0  0  0  0  0  0  0
    1.3501    1.2523    1.2212 H   0  0  0  0  0  0  0  0  0  0  0  0
    0.1945   -2.3531    1.6645 H   0  0  0  0  0  0  0  0  0  0  0  0
   -2.8949    3.6152    0.2515 H   0  0  0  0  0  0  0  0  0  0  0  0
   -4.7021   -1.9272    1.0231 H   0  0  0  0  0  0  0  0  0  0  0  0
    3.0563   -1.8412   -2.0290 H   0  0  0  0  0  0  0  0  0  0  0  0
    3.6406   -0.2995   -2.6098 H   0  0  0  0  0  0  0  0  0  0  0  0
    5.3100    0.5464    0.5025 H   0  0  0  0  0  0  0  0  0  0  0  0
    5.0018    1.0917   -1.1461 H   0  0  0  0  0  0  0  0  0  0  0  0
    3.7277    1.2134    0.0960 H   0  0  0  0  0  0  0  0  0  0  0  0
    1.2264   -0.2555   -2.4225 H   0  0  0  0  0  0  0  0  0  0  0  0
    1.8936    0.8865   -1.2746 H   0  0  0  0  0  0  0  0  0  0  0  0
    1.0440    3.5711    1.9288 H   0  0  0  0  0  0  0  0  0  0  0  0
   -1.3400   -3.8130    2.8883 H   0  0  0  0  0  0  0  0  0  0  0  0
   -3.7896   -3.6188    2.5627 H   0  0  0  0  0  0  0  0  0  0  0  0
   -1.0675    4.7702    1.4305 H   0  0  0  0  0  0  0  0  0  0  0  0
  2  1  1  0
  3  1  1  0
  4  6  1  0
  5  7  1  0
  6  2  2  0
  7  3  2  0
  8 14  1  0
  9  1  1  0
 10  2  1  0
 11  3  1  0
 12  6  1  0
 13  7  1  0
 14 16  1  0
 15  8  1  0
 16  9  1  0
 17 10  2  0
 18 11  2  0
 19 18  1  0
 20 17  1  0
  5  4  2  0
 19 13  2  0
 20 12  2  0
  1 21  1  0
  4 22  1  0
  5 23  1  0
  8 24  1  0
  9 25  1  0
  9 26  1  0
 10 27  1  0
 11 28  1  0
 12 29  1  0
 13 30  1  0
 14 31  1  0
 14 32  1  0
 15 33  1  0
 15 34  1  0
 15 35  1  0
 16 36  1  0
 16 37  1  0
 17 38  1  0
 18 39  1  0
 19 40  1  0
 20 41  1  0
M  END
$$$$
