
     RDKit          3D

 41 43  0  0  0  0  0  0  0  0999 V2000
   -0.4458   -0.2323    0.4249 C   0  0  0  0  0  0  0  0  0  0  0  0
   -0.9078    1.1384   -0.0748 C   0  0  0  0  0  0  0  0  0  0  0  0
   -1.3338   -1.3243   -0.1836 C   0  0  0  0  0  0  0  0  0  0  0  0
   -3.0773    0.8674    1.2113 C   0  0  0  0  0  0  0  0  0  0  0  0
   -3.3069   -0.4557    1.1515 C   0  0  0  0  0  0  0  0  0  0  0  0
   -2.1699    1.6301    0.3347 C   0  0  0  0  0  0  0  0  0  0  0  0
   -2.6935   -1.3998    0.2000 C   0  0  0  0  0  0  0  0  0  0  0  0
    4.0403    0.2206   -0.0085 N   0  0  0  0  0  0  0  0  0  0  0  0
    1.0771   -0.5272    0.3346 C   0  0  0  0  0  0  0  0  0  0  0  0
   -0.1394    1.9200   -0.9559 C   0  0  0  0  0  0  0  0  0  0  0  0
   -0.8512   -2.2444   -1.1319 C   0  0  0  0  0  0  0  0  0  0  0  0
   -2.5932    2.9010   -0.0853 C   0  0  0  0  0  0  0  0  0  0  0  0
   -3.5072   -2.4192   -0.3185 C   0  0  0  0  0  0  0  0  0  0  0  0
    3.4038   -0.0096    1.2890 C   0  0  0  0  0  0  0  0  0  0  0  0
    5.4720   -0.0442    0.0601 C   0  0  0  0  0  0  0  0  0  0  0  0
    1.9166    0.3629    1.2666 C   0  0  0  0  0  0  0  0  0  0  0  0
   -0.5807    3.1761   -1.3774 C   0  0  0  0  0  0  0  0  0  0  0  0
   -1.6778   -3.2428   -1.6511 C   0  0  0  0  0  0  0  0  0  0  0  0
   -3.0021   -3.3360   -1.2389 C   0  0  0  0  0  0  0  0  0  0  0  0
   -1.8023    3.6704   -0.9364 C   0  0  0  0  0  0  0  0  0  0  0  0
   -0.6350   -0.2566    1.5093 H   0  0  0  0  0  0  0  0  0  0  0  0
   -3.6247    1.4575    1.9429 H   0  0  0  0  0  0  0  0  0  0  0  0
   -4.0319   -0.8885    1.8372 H   0  0  0  0  0  0  0  0  0  0  0  0
    3.6268   -0.3939   -0.7081 H   0  0  0  0  0  0  0  0  0  0  0  0
    1.2539   -1.5697    0.6331 H   0  0  0  0  0  0  0  0  0  0  0  0
    1.4287   -0.4392   -0.6989 H   0  0  0  0  0  0  0  0  0  0  0  0
    0.8206    1.5722   -1.3270 H   0  0  0  0  0  0  0  0  0  0  0  0
    0.1746   -2.1998   -1.4862 H   0  0  0  0  0  0  0  0  0  0  0  0
   -3.5566    3.2930    0.2326 H   0  0  0  0  0  0  0  0  0  0  0  0
   -4.5514   -2.4933   -0.0230 H   0  0  0  0  0  0  0  0  0  0  0  0
    3.8934    0.6062    2.0532 H   0  0  0  0  0  0  0  0  0  0  0  0
    3.5150   -1.0590    1.5877 H   0  0  0  0  0  0  0  0  0  0  0  0
    5.9646    0.6225    0.7751 H   0  0  0  0  0  0  0  0  0  0  0  0
    5.6749   -1.0833    0.3392 H   0  0  0  0  0  0  0  0  0  0  0  0
    5.9227    0.1353   -0.9210 H   0  0  0  0  0  0  0  0  0  0  0  0
    1.5304    0.2707    2.2895 H   0  0  0  0  0  0  0  0  0  0  0  0
    1.8151    1.4183    0.9911 H   0  0  0  0  0  0  0  0  0  0  0  0
    0.0345    3.7673   -2.0510 H   0  0  0  0  0  0  0  0  0  0  0  0
   -1.2852   -3.9467   -2.3803 H   0  0  0  0  0  0  0  0  0  0  0  0
   -3.6459   -4.1126   -1.6423 H   0  0  0  0  0  0  0  0  0  0  0  0
   -2.1454    4.6481   -1.2633 H   0  0  0  0  0  0  0  0  0  0  0  0
  2  1  1  0
  3  1  1  0
  4  6  1  0
  5  7  1  0
  6  2  2  0
  7  3  2  0
  8 14  1  0
  9  1  1  0
 10  2  1  0
 11  3  1  0
 12  6  1  0
 13  7  1  0
 14 16  1  0
 15  8  1  0
 16  9  1  0
 17 10  2  0
 18 11  2  0
 19 18  1  0
 20 17  1  0
  5  4  2  0
 19 13  2  0
 20 12  2  0
  1 21  1  0
  4 22  1  0
  5 23  1  0
  8 24  1  0
  9 25  1  0
  9 26  1  0
 10 27  1  0
 11 28  1  0
 12 29  1  0
 13 30  1  0
 14 31  1  0
 14 32  1  0
 15 33  1  0
 15 34  1  0
 15 35  1  0
 16 36  1  0
 16 37  1  0
 17 38  1  0
 18 39  1  0
 19 40  1  0
 20 41  1  0
M  END
$$$$
