
     RDKit          3D

 41 43  0  0  0  0  0  0  0  0999 V2000
   -0.1122    0.5370   -0.0748 C   0  0  0  0  0  0  0  0  0  0  0  0
   -0.9927    1.6639    0.4620 C   0  0  0  0  0  0  0  0  0  0  0  0
   -0.8685   -0.4237   -0.9838 C   0  0  0  0  0  0  0  0  0  0  0  0
   -2.6641    0.0880    1.5380 C   0  0  0  0  0  0  0  0  0  0  0  0
   -2.5975   -1.0138    0.7760 C   0  0  0  0  0  0  0  0  0  0  0  0
   -2.1673    1.4287    1.2012 C   0  0  0  0  0  0  0  0  0  0  0  0
   -2.0145   -1.1267   -0.5675 C   0  0  0  0  0  0  0  0  0  0  0  0
    3.9940   -1.3497   -0.5471 N   0  0  0  0  0  0  0  0  0  0  0  0
    0.6793   -0.1581    1.0624 C   0  0  0  0  0  0  0  0  0  0  0  0
   -0.5960    2.9967    0.2233 C   0  0  0  0  0  0  0  0  0  0  0  0
   -0.3865   -0.6284   -2.2939 C   0  0  0  0  0  0  0  0  0  0  0  0
   -2.8979    2.5230    1.6968 C   0  0  0  0  0  0  0  0  0  0  0  0
   -2.6288   -2.0279   -1.4550 C   0  0  0  0  0  0  0  0  0  0  0  0
    2.9547   -0.4237   -0.0883 C   0  0  0  0  0  0  0  0  0  0  0  0
    4.7529   -1.9357    0.5508 C   0  0  0  0  0  0  0  0  0  0  0  0
    1.7802   -1.1273    0.6005 C   0  0  0  0  0  0  0  0  0  0  0  0
   -1.3396    4.0710    0.7107 C   0  0  0  0  0  0  0  0  0  0  0  0
   -1.0147   -1.5167   -3.1660 C   0  0  0  0  0  0  0  0  0  0  0  0
   -2.1361   -2.2192   -2.7456 C   0  0  0  0  0  0  0  0  0  0  0  0
   -2.4908    3.8341    1.4502 C   0  0  0  0  0  0  0  0  0  0  0  0
    0.6355    1.0332   -0.7069 H   0  0  0  0  0  0  0  0  0  0  0  0
   -3.1567    0.0067    2.5051 H   0  0  0  0  0  0  0  0  0  0  0  0
   -3.0393   -1.9287    1.1663 H   0  0  0  0  0  0  0  0  0  0  0  0
    4.6414   -0.8398   -1.1484 H   0  0  0  0  0  0  0  0  0  0  0  0
    0.0047   -0.7200    1.7177 H   0  0  0  0  0  0  0  0  0  0  0  0
    1.1403    0.6076    1.7012 H   0  0  0  0  0  0  0  0  0  0  0  0
    0.3053    3.2080   -0.3485 H   0  0  0  0  0  0  0  0  0  0  0  0
    0.4971   -0.0986   -2.6437 H   0  0  0  0  0  0  0  0  0  0  0  0
   -3.8055    2.3603    2.2746 H   0  0  0  0  0  0  0  0  0  0  0  0
   -3.5115   -2.5851   -1.1478 H   0  0  0  0  0  0  0  0  0  0  0  0
    3.3862    0.3404    0.5696 H   0  0  0  0  0  0  0  0  0  0  0  0
    2.5896    0.1010   -0.9767 H   0  0  0  0  0  0  0  0  0  0  0  0
    4.1377   -2.6023    1.1616 H   0  0  0  0  0  0  0  0  0  0  0  0
    5.5680   -2.5411    0.1412 H   0  0  0  0  0  0  0  0  0  0  0  0
    5.1982   -1.1663    1.1897 H   0  0  0  0  0  0  0  0  0  0  0  0
    1.3588   -1.8953   -0.0583 H   0  0  0  0  0  0  0  0  0  0  0  0
    2.1412   -1.6506    1.4938 H   0  0  0  0  0  0  0  0  0  0  0  0
   -1.0179    5.0901    0.5135 H   0  0  0  0  0  0  0  0  0  0  0  0
   -0.6238   -1.6619   -4.1695 H   0  0  0  0  0  0  0  0  0  0  0  0
   -2.6288   -2.9152   -3.4187 H   0  0  0  0  0  0  0  0  0  0  0  0
   -3.0746    4.6661    1.8342 H   0  0  0  0  0  0  0  0  0  0  0  0
  2  1  1  0
  3  1  1  0
  4  6  1  0
  5  7  1  0
  6  2  2  0
  7  3  2  0
  8 14  1  0
  9  1  1  0
 10  2  1  0
 11  3  1  0
 12  6  1  0
 13  7  1  0
 14 16  1  0
 15  8  1  0
 16  9  1  0
 17 10  2  0
 18 11  2  0
 19 18  1  0
 20 17  1  0
  5  4  2  0
 19 13  2  0
 20 12  2  0
  1 21  1  0
  4 22  1  0
  5 23  1  0
  8 24  1  0
  9 25  1  0
  9 26  1  0
 10 27  1  0
 11 28  1  0
 12 29  1  0
 13 30  1  0
 14 31  1  0
 14 32  1  0
 15 33  1  0
 15 34  1  0
 15 35  1  0
 16 36  1  0
 16 37  1  0
 17 38  1  0
 18 39  1  0
 19 40  1  0
 20 41  1  0
M  END
$$$$
