
     RDKit          3D

 41 43  0  0  0  0  0  0  0  0999 V2000
   -0.3722    0.0746   -0.3224 C   0  0  0  0  0  0  0  0  0  0  0  0
   -1.2657    1.2697    0.0281 C   0  0  0  0  0  0  0  0  0  0  0  0
   -0.9954   -1.2055    0.2404 C   0  0  0  0  0  0  0  0  0  0  0  0
   -3.0696    0.3584   -1.5035 C   0  0  0  0  0  0  0  0  0  0  0  0
   -2.9207   -0.9732   -1.3940 C   0  0  0  0  0  0  0  0  0  0  0  0
   -2.5454    1.3697   -0.5672 C   0  0  0  0  0  0  0  0  0  0  0  0
   -2.2091   -1.6784   -0.3124 C   0  0  0  0  0  0  0  0  0  0  0  0
    4.0905    0.6703   -0.8311 N   0  0  0  0  0  0  0  0  0  0  0  0
    1.1375    0.2972   -0.0306 C   0  0  0  0  0  0  0  0  0  0  0  0
   -0.8697    2.2623    0.9425 C   0  0  0  0  0  0  0  0  0  0  0  0
   -0.4285   -1.9142    1.3147 C   0  0  0  0  0  0  0  0  0  0  0  0
   -3.3586    2.4783   -0.2857 C   0  0  0  0  0  0  0  0  0  0  0  0
   -2.7749   -2.8710    0.1648 C   0  0  0  0  0  0  0  0  0  0  0  0
    3.5214   -0.5951   -0.3685 C   0  0  0  0  0  0  0  0  0  0  0  0
    5.5121    0.7488   -0.5211 C   0  0  0  0  0  0  0  0  0  0  0  0
    2.0399   -0.7264   -0.7407 C   0  0  0  0  0  0  0  0  0  0  0  0
   -1.6972    3.3509    1.2246 C   0  0  0  0  0  0  0  0  0  0  0  0
   -1.0119   -3.0906    1.7899 C   0  0  0  0  0  0  0  0  0  0  0  0
   -2.1784   -3.5745    1.2095 C   0  0  0  0  0  0  0  0  0  0  0  0
   -2.9367    3.4637    0.6054 C   0  0  0  0  0  0  0  0  0  0  0  0
   -0.3965   -0.0136   -1.4198 H   0  0  0  0  0  0  0  0  0  0  0  0
   -3.6512    0.7496   -2.3353 H   0  0  0  0  0  0  0  0  0  0  0  0
   -3.3878   -1.6118   -2.1404 H   0  0  0  0  0  0  0  0  0  0  0  0
    3.6110    1.4512   -0.3857 H   0  0  0  0  0  0  0  0  0  0  0  0
    1.4151    1.2957   -0.3924 H   0  0  0  0  0  0  0  0  0  0  0  0
    1.3409    0.2921    1.0464 H   0  0  0  0  0  0  0  0  0  0  0  0
    0.0877    2.2060    1.4523 H   0  0  0  0  0  0  0  0  0  0  0  0
    0.4774   -1.5670    1.8022 H   0  0  0  0  0  0  0  0  0  0  0  0
   -4.3397    2.5717   -0.7459 H   0  0  0  0  0  0  0  0  0  0  0  0
   -3.7013   -3.2493   -0.2612 H   0  0  0  0  0  0  0  0  0  0  0  0
    4.0612   -1.4294   -0.8328 H   0  0  0  0  0  0  0  0  0  0  0  0
    3.6341   -0.6911    0.7182 H   0  0  0  0  0  0  0  0  0  0  0  0
    5.6909    0.6967    0.5578 H   0  0  0  0  0  0  0  0  0  0  0  0
    6.0707   -0.0518   -1.0166 H   0  0  0  0  0  0  0  0  0  0  0  0
    5.9117    1.7011   -0.8832 H   0  0  0  0  0  0  0  0  0  0  0  0
    1.9234   -0.6246   -1.8273 H   0  0  0  0  0  0  0  0  0  0  0  0
    1.7241   -1.7451   -0.4912 H   0  0  0  0  0  0  0  0  0  0  0  0
   -1.3718    4.1107    1.9305 H   0  0  0  0  0  0  0  0  0  0  0  0
   -0.5538   -3.6275    2.6166 H   0  0  0  0  0  0  0  0  0  0  0  0
   -2.6329   -4.4899    1.5783 H   0  0  0  0  0  0  0  0  0  0  0  0
   -3.5807    4.3112    0.8237 H   0  0  0  0  0  0  0  0  0  0  0  0
  2  1  1  0
  3  1  1  0
  4  6  1  0
  5  7  1  0
  6  2  2  0
  7  3  2  0
  8 14  1  0
  9  1  1  0
 10  2  1  0
 11  3  1  0
 12  6  1  0
 13  7  1  0
 14 16  1  0
 15  8  1  0
 16  9  1  0
 17 10  2  0
 18 11  2  0
 19 18  1  0
 20 17  1  0
  5  4  2  0
 19 13  2  0
 20 12  2  0
  1 21  1  0
  4 22  1  0
  5 23  1  0
  8 24  1  0
  9 25  1  0
  9 26  1  0
 10 27  1  0
 11 28  1  0
 12 29  1  0
 13 30  1  0
 14 31  1  0
 14 32  1  0
 15 33  1  0
 15 34  1  0
 15 35  1  0
 16 36  1  0
 16 37  1  0
 17 38  1  0
 18 39  1  0
 19 40  1  0
 20 41  1  0
M  END
$$$$
