
     RDKit          3D

 41 43  0  0  0  0  0  0  0  0999 V2000
   -0.1871    0.2266    0.6831 C   0  0  0  0  0  0  0  0  0  0  0  0
   -0.9898   -1.0392    0.4102 C   0  0  0  0  0  0  0  0  0  0  0  0
   -1.0687    1.4238    1.0271 C   0  0  0  0  0  0  0  0  0  0  0  0
   -2.3334    0.0065   -1.4697 C   0  0  0  0  0  0  0  0  0  0  0  0
   -2.3757    1.3070   -1.1435 C   0  0  0  0  0  0  0  0  0  0  0  0
   -1.9771   -1.1149   -0.5900 C   0  0  0  0  0  0  0  0  0  0  0  0
   -2.0746    1.9014    0.1659 C   0  0  0  0  0  0  0  0  0  0  0  0
    4.0298   -1.0585   -1.8179 N   0  0  0  0  0  0  0  0  0  0  0  0
    0.8427    0.5731   -0.4207 C   0  0  0  0  0  0  0  0  0  0  0  0
   -0.7187   -2.1866    1.1848 C   0  0  0  0  0  0  0  0  0  0  0  0
   -0.8487    2.0902    2.2507 C   0  0  0  0  0  0  0  0  0  0  0  0
   -2.6433   -2.3337   -0.8073 C   0  0  0  0  0  0  0  0  0  0  0  0
   -2.8144    3.0376    0.5373 C   0  0  0  0  0  0  0  0  0  0  0  0
    2.9887   -0.0514   -1.5980 C   0  0  0  0  0  0  0  0  0  0  0  0
    4.9667   -1.1504   -0.7055 C   0  0  0  0  0  0  0  0  0  0  0  0
    1.9552   -0.4776   -0.5505 C   0  0  0  0  0  0  0  0  0  0  0  0
   -1.3979   -3.3844    0.9653 C   0  0  0  0  0  0  0  0  0  0  0  0
   -1.6007    3.2081    2.6102 C   0  0  0  0  0  0  0  0  0  0  0  0
   -2.5832    3.6839    1.7517 C   0  0  0  0  0  0  0  0  0  0  0  0
   -2.3595   -3.4591   -0.0336 C   0  0  0  0  0  0  0  0  0  0  0  0
    0.4098    0.0255    1.5851 H   0  0  0  0  0  0  0  0  0  0  0  0
   -2.6134   -0.2727   -2.4837 H   0  0  0  0  0  0  0  0  0  0  0  0
   -2.6885    2.0126   -1.9108 H   0  0  0  0  0  0  0  0  0  0  0  0
    4.5504   -0.8074   -2.6586 H   0  0  0  0  0  0  0  0  0  0  0  0
    0.3618    0.7009   -1.3964 H   0  0  0  0  0  0  0  0  0  0  0  0
    1.3073    1.5394   -0.1814 H   0  0  0  0  0  0  0  0  0  0  0  0
    0.0377   -2.1550    1.9664 H   0  0  0  0  0  0  0  0  0  0  0  0
   -0.0803    1.7394    2.9367 H   0  0  0  0  0  0  0  0  0  0  0  0
   -3.4042   -2.4130   -1.5809 H   0  0  0  0  0  0  0  0  0  0  0  0
   -3.5924    3.4242   -0.1177 H   0  0  0  0  0  0  0  0  0  0  0  0
    3.4377    0.9133   -1.3315 H   0  0  0  0  0  0  0  0  0  0  0  0
    2.4711    0.1001   -2.5530 H   0  0  0  0  0  0  0  0  0  0  0  0
    5.4375   -0.1850   -0.4937 H   0  0  0  0  0  0  0  0  0  0  0  0
    5.7608   -1.8592   -0.9616 H   0  0  0  0  0  0  0  0  0  0  0  0
    4.4856   -1.5248    0.2024 H   0  0  0  0  0  0  0  0  0  0  0  0
    2.4341   -0.6099    0.4261 H   0  0  0  0  0  0  0  0  0  0  0  0
    1.5258   -1.4440   -0.8396 H   0  0  0  0  0  0  0  0  0  0  0  0
   -1.1716   -4.2574    1.5716 H   0  0  0  0  0  0  0  0  0  0  0  0
   -1.4170    3.7058    3.5585 H   0  0  0  0  0  0  0  0  0  0  0  0
   -3.1722    4.5551    2.0249 H   0  0  0  0  0  0  0  0  0  0  0  0
   -2.8905   -4.3900   -0.2122 H   0  0  0  0  0  0  0  0  0  0  0  0
  2  1  1  0
  3  1  1  0
  4  6  1  0
  5  7  1  0
  6  2  2  0
  7  3  2  0
  8 14  1  0
  9  1  1  0
 10  2  1  0
 11  3  1  0
 12  6  1  0
 13  7  1  0
 14 16  1  0
 15  8  1  0
 16  9  1  0
 17 10  2  0
 18 11  2  0
 19 18  1  0
 20 17  1  0
  5  4  2  0
 19 13  2  0
 20 12  2  0
  1 21  1  0
  4 22  1  0
  5 23  1  0
  8 24  1  0
  9 25  1  0
  9 26  1  0
 10 27  1  0
 11 28  1  0
 12 29  1  0
 13 30  1  0
 14 31  1  0
 14 32  1  0
 15 33  1  0
 15 34  1  0
 15 35  1  0
 16 36  1  0
 16 37  1  0
 17 38  1  0
 18 39  1  0
 19 40  1  0
 20 41  1  0
M  END
$$$$
