
     RDKit          3D

 41 43  0  0  0  0  0  0  0  0999 V2000
   -0.0688    0.0553    0.1043 C   0  0  0  0  0  0  0  0  0  0  0  0
   -0.8575   -1.1564    0.5935 C   0  0  0  0  0  0  0  0  0  0  0  0
   -0.8761    1.3483    0.1611 C   0  0  0  0  0  0  0  0  0  0  0  0
   -2.7156   -0.8565   -1.1062 C   0  0  0  0  0  0  0  0  0  0  0  0
   -2.7317    0.4665   -1.3274 C   0  0  0  0  0  0  0  0  0  0  0  0
   -2.0757   -1.5579    0.0147 C   0  0  0  0  0  0  0  0  0  0  0  0
   -2.1060    1.5107   -0.5042 C   0  0  0  0  0  0  0  0  0  0  0  0
    3.2852   -0.2682    0.1801 N   0  0  0  0  0  0  0  0  0  0  0  0
    0.5893   -0.2084   -1.2760 C   0  0  0  0  0  0  0  0  0  0  0  0
   -0.3264   -1.9161    1.6571 C   0  0  0  0  0  0  0  0  0  0  0  0
   -0.3594    2.4289    0.9064 C   0  0  0  0  0  0  0  0  0  0  0  0
   -2.7135   -2.7162    0.4921 C   0  0  0  0  0  0  0  0  0  0  0  0
   -2.7691    2.7483   -0.4296 C   0  0  0  0  0  0  0  0  0  0  0  0
    3.1583    0.0819   -1.2346 C   0  0  0  0  0  0  0  0  0  0  0  0
    4.6432   -0.7018    0.4873 C   0  0  0  0  0  0  0  0  0  0  0  0
    1.7947    0.6994   -1.5729 C   0  0  0  0  0  0  0  0  0  0  0  0
   -0.9791   -3.0546    2.1282 C   0  0  0  0  0  0  0  0  0  0  0  0
   -1.0361    3.6457    0.9809 C   0  0  0  0  0  0  0  0  0  0  0  0
   -2.2414    3.8066    0.3103 C   0  0  0  0  0  0  0  0  0  0  0  0
   -2.1724   -3.4573    1.5429 C   0  0  0  0  0  0  0  0  0  0  0  0
    0.7500    0.1812    0.8233 H   0  0  0  0  0  0  0  0  0  0  0  0
   -3.2532   -1.4946   -1.8050 H   0  0  0  0  0  0  0  0  0  0  0  0
   -3.2803    0.8296   -2.1945 H   0  0  0  0  0  0  0  0  0  0  0  0
    2.6484   -1.0371    0.3890 H   0  0  0  0  0  0  0  0  0  0  0  0
    0.9036   -1.2576   -1.3538 H   0  0  0  0  0  0  0  0  0  0  0  0
   -0.1407   -0.0592   -2.0795 H   0  0  0  0  0  0  0  0  0  0  0  0
    0.6078   -1.6199    2.1305 H   0  0  0  0  0  0  0  0  0  0  0  0
    0.5888    2.3273    1.4318 H   0  0  0  0  0  0  0  0  0  0  0  0
   -3.6535   -3.0452    0.0538 H   0  0  0  0  0  0  0  0  0  0  0  0
   -3.7175    2.8945   -0.9425 H   0  0  0  0  0  0  0  0  0  0  0  0
    3.9307    0.8112   -1.5087 H   0  0  0  0  0  0  0  0  0  0  0  0
    3.3157   -0.8091   -1.8550 H   0  0  0  0  0  0  0  0  0  0  0  0
    5.3659    0.1001    0.3050 H   0  0  0  0  0  0  0  0  0  0  0  0
    4.9265   -1.5814   -0.0999 H   0  0  0  0  0  0  0  0  0  0  0  0
    4.7085   -0.9685    1.5467 H   0  0  0  0  0  0  0  0  0  0  0  0
    1.7993    0.9105   -2.6503 H   0  0  0  0  0  0  0  0  0  0  0  0
    1.6917    1.6705   -1.0765 H   0  0  0  0  0  0  0  0  0  0  0  0
   -0.5552   -3.6240    2.9509 H   0  0  0  0  0  0  0  0  0  0  0  0
   -0.6188    4.4650    1.5599 H   0  0  0  0  0  0  0  0  0  0  0  0
   -2.7733    4.7524    0.3627 H   0  0  0  0  0  0  0  0  0  0  0  0
   -2.6865   -4.3436    1.9044 H   0  0  0  0  0  0  0  0  0  0  0  0
  2  1  1  0
  3  1  1  0
  4  6  1  0
  5  7  1  0
  6  2  2  0
  7  3  2  0
  8 14  1  0
  9  1  1  0
 10  2  1  0
 11  3  1  0
 12  6  1  0
 13  7  1  0
 14 16  1  0
 15  8  1  0
 16  9  1  0
 17 10  2  0
 18 11  2  0
 19 18  1  0
 20 17  1  0
  5  4  2  0
 19 13  2  0
 20 12  2  0
  1 21  1  0
  4 22  1  0
  5 23  1  0
  8 24  1  0
  9 25  1  0
  9 26  1  0
 10 27  1  0
 11 28  1  0
 12 29  1  0
 13 30  1  0
 14 31  1  0
 14 32  1  0
 15 33  1  0
 15 34  1  0
 15 35  1  0
 16 36  1  0
 16 37  1  0
 17 38  1  0
 18 39  1  0
 19 40  1  0
 20 41  1  0
M  END
$$$$
