
     RDKit          3D

 26 27  0  0  0  0  0  0  0  0999 V2000
   -1.4979    0.0077   -0.2841 N   0  0  0  0  0  0  0  0  0  0  0  0
   -2.8534    0.1742   -0.2192 C   0  0  0  0  0  0  0  0  0  0  0  0
   -0.7139    0.2021    0.9539 C   0  0  0  0  0  0  0  0  0  0  0  0
    0.7883    0.1506    0.7528 C   0  0  0  0  0  0  0  0  0  0  0  0
   -3.7715   -0.5732   -0.7198 N   0  0  0  0  0  0  0  0  0  0  0  0
   -0.9080   -0.9697   -1.2051 C   0  0  0  0  0  0  0  0  0  0  0  0
    1.3628   -0.2054   -0.4784 C   0  0  0  0  0  0  0  0  0  0  0  0
    0.4759   -0.5049   -1.6548 C   0  0  0  0  0  0  0  0  0  0  0  0
   -3.2565    1.2883    0.4267 N   0  0  0  0  0  0  0  0  0  0  0  0
    1.6311    0.4455    1.8370 C   0  0  0  0  0  0  0  0  0  0  0  0
    2.7570   -0.2292   -0.6201 C   0  0  0  0  0  0  0  0  0  0  0  0
    3.0183    0.4055    1.6928 C   0  0  0  0  0  0  0  0  0  0  0  0
    3.5804    0.0713    0.4638 C   0  0  0  0  0  0  0  0  0  0  0  0
   -0.9473    1.1783    1.3954 H   0  0  0  0  0  0  0  0  0  0  0  0
   -0.9932   -0.5776    1.6740 H   0  0  0  0  0  0  0  0  0  0  0  0
   -3.3544   -1.3910   -1.1609 H   0  0  0  0  0  0  0  0  0  0  0  0
   -0.8550   -1.9520   -0.7184 H   0  0  0  0  0  0  0  0  0  0  0  0
   -1.5234   -1.0800   -2.1058 H   0  0  0  0  0  0  0  0  0  0  0  0
    0.3867    0.4059   -2.2598 H   0  0  0  0  0  0  0  0  0  0  0  0
    0.9264   -1.2841   -2.2806 H   0  0  0  0  0  0  0  0  0  0  0  0
   -2.7377    2.1045    0.1289 H   0  0  0  0  0  0  0  0  0  0  0  0
   -4.2510    1.4176    0.2684 H   0  0  0  0  0  0  0  0  0  0  0  0
    1.2073    0.7125    2.8031 H   0  0  0  0  0  0  0  0  0  0  0  0
    3.2082   -0.4827   -1.5768 H   0  0  0  0  0  0  0  0  0  0  0  0
    3.6599    0.6391    2.5384 H   0  0  0  0  0  0  0  0  0  0  0  0
    4.6609    0.0468    0.3487 H   0  0  0  0  0  0  0  0  0  0  0  0
  2  1  1  0
  3  1  1  0
  4  3  1  0
  5  2  2  3
  6  1  1  0
  7  8  1  0
  8  6  1  0
  9  2  1  0
 10  4  2  0
 11  7  2  0
 12 10  1  0
 13 11  1  0
  4  7  1  0
 12 13  2  0
  3 14  1  0
  3 15  1  0
  5 16  1  0
  6 17  1  0
  6 18  1  0
  8 19  1  0
  8 20  1  0
  9 21  1  0
  9 22  1  0
 10 23  1  0
 11 24  1  0
 12 25  1  0
 13 26  1  0
M  END
$$$$
