
     RDKit          3D

 26 27  0  0  0  0  0  0  0  0999 V2000
    1.4933    0.1474   -0.0736 N   0  0  0  0  0  0  0  0  0  0  0  0
    2.8034    0.5147    0.0424 C   0  0  0  0  0  0  0  0  0  0  0  0
    0.4448    1.1635   -0.2302 C   0  0  0  0  0  0  0  0  0  0  0  0
   -0.9548    0.6312    0.0079 C   0  0  0  0  0  0  0  0  0  0  0  0
    3.3186    1.6804   -0.1278 N   0  0  0  0  0  0  0  0  0  0  0  0
    1.1295   -1.1523   -0.6607 C   0  0  0  0  0  0  0  0  0  0  0  0
   -1.2144   -0.7457    0.1290 C   0  0  0  0  0  0  0  0  0  0  0  0
   -0.0770   -1.7315    0.0760 C   0  0  0  0  0  0  0  0  0  0  0  0
    3.6425   -0.4677    0.4316 N   0  0  0  0  0  0  0  0  0  0  0  0
   -2.0270    1.5353    0.0785 C   0  0  0  0  0  0  0  0  0  0  0  0
   -2.5237   -1.1937    0.3511 C   0  0  0  0  0  0  0  0  0  0  0  0
   -3.3294    1.0800    0.2862 C   0  0  0  0  0  0  0  0  0  0  0  0
   -3.5767   -0.2831    0.4251 C   0  0  0  0  0  0  0  0  0  0  0  0
    0.4930    1.5818   -1.2432 H   0  0  0  0  0  0  0  0  0  0  0  0
    0.6192    1.9723    0.4905 H   0  0  0  0  0  0  0  0  0  0  0  0
    2.6051    2.3431   -0.4250 H   0  0  0  0  0  0  0  0  0  0  0  0
    0.9024   -1.0146   -1.7262 H   0  0  0  0  0  0  0  0  0  0  0  0
    1.9460   -1.8809   -0.6092 H   0  0  0  0  0  0  0  0  0  0  0  0
   -0.3964   -2.6496   -0.4307 H   0  0  0  0  0  0  0  0  0  0  0  0
    0.2030   -1.9904    1.1046 H   0  0  0  0  0  0  0  0  0  0  0  0
    3.2772   -0.9837    1.2209 H   0  0  0  0  0  0  0  0  0  0  0  0
    4.5432   -0.0575    0.6575 H   0  0  0  0  0  0  0  0  0  0  0  0
   -1.8512    2.6042   -0.0240 H   0  0  0  0  0  0  0  0  0  0  0  0
   -2.7292   -2.2554    0.4673 H   0  0  0  0  0  0  0  0  0  0  0  0
   -4.1508    1.7895    0.3436 H   0  0  0  0  0  0  0  0  0  0  0  0
   -4.5903   -0.6373    0.5936 H   0  0  0  0  0  0  0  0  0  0  0  0
  2  1  1  0
  3  1  1  0
  4  3  1  0
  5  2  2  3
  6  1  1  0
  7  8  1  0
  8  6  1  0
  9  2  1  0
 10  4  2  0
 11  7  2  0
 12 10  1  0
 13 11  1  0
  4  7  1  0
 12 13  2  0
  3 14  1  0
  3 15  1  0
  5 16  1  0
  6 17  1  0
  6 18  1  0
  8 19  1  0
  8 20  1  0
  9 21  1  0
  9 22  1  0
 10 23  1  0
 11 24  1  0
 12 25  1  0
 13 26  1  0
M  END
$$$$
