
     RDKit          3D

 26 27  0  0  0  0  0  0  0  0999 V2000
    1.4974    0.1303    0.0808 N   0  0  0  0  0  0  0  0  0  0  0  0
    2.8073    0.4896   -0.0601 C   0  0  0  0  0  0  0  0  0  0  0  0
    0.4635    1.1501    0.2991 C   0  0  0  0  0  0  0  0  0  0  0  0
   -0.9473    0.6380    0.0834 C   0  0  0  0  0  0  0  0  0  0  0  0
    3.3383    1.6447    0.1328 N   0  0  0  0  0  0  0  0  0  0  0  0
    1.1374   -1.1843    0.6360 C   0  0  0  0  0  0  0  0  0  0  0  0
   -1.2235   -0.7319   -0.0743 C   0  0  0  0  0  0  0  0  0  0  0  0
   -0.0947   -1.7288   -0.0848 C   0  0  0  0  0  0  0  0  0  0  0  0
    3.6256   -0.4870   -0.5039 N   0  0  0  0  0  0  0  0  0  0  0  0
   -2.0122    1.5534    0.0719 C   0  0  0  0  0  0  0  0  0  0  0  0
   -2.5427   -1.1609   -0.2738 C   0  0  0  0  0  0  0  0  0  0  0  0
   -3.3242    1.1166   -0.1136 C   0  0  0  0  0  0  0  0  0  0  0  0
   -3.5885   -0.2391   -0.2891 C   0  0  0  0  0  0  0  0  0  0  0  0
    0.5439    1.5350    1.3232 H   0  0  0  0  0  0  0  0  0  0  0  0
    0.6257    1.9801   -0.4000 H   0  0  0  0  0  0  0  0  0  0  0  0
    2.6397    2.3036    0.4710 H   0  0  0  0  0  0  0  0  0  0  0  0
    0.9412   -1.0790    1.7113 H   0  0  0  0  0  0  0  0  0  0  0  0
    1.9450   -1.9181    0.5383 H   0  0  0  0  0  0  0  0  0  0  0  0
    0.1541   -1.9569   -1.1285 H   0  0  0  0  0  0  0  0  0  0  0  0
   -0.4088   -2.6599    0.4010 H   0  0  0  0  0  0  0  0  0  0  0  0
    4.5237   -0.0777   -0.7417 H   0  0  0  0  0  0  0  0  0  0  0  0
    3.2336   -0.9741   -1.2988 H   0  0  0  0  0  0  0  0  0  0  0  0
   -1.8232    2.6169    0.2036 H   0  0  0  0  0  0  0  0  0  0  0  0
   -2.7617   -2.2165   -0.4181 H   0  0  0  0  0  0  0  0  0  0  0  0
   -4.1400    1.8348   -0.1253 H   0  0  0  0  0  0  0  0  0  0  0  0
   -4.6098   -0.5788   -0.4404 H   0  0  0  0  0  0  0  0  0  0  0  0
  2  1  1  0
  3  1  1  0
  4  3  1  0
  5  2  2  3
  6  1  1  0
  7  8  1  0
  8  6  1  0
  9  2  1  0
 10  4  2  0
 11  7  2  0
 12 10  1  0
 13 11  1  0
  4  7  1  0
 12 13  2  0
  3 14  1  0
  3 15  1  0
  5 16  1  0
  6 17  1  0
  6 18  1  0
  8 19  1  0
  8 20  1  0
  9 21  1  0
  9 22  1  0
 10 23  1  0
 11 24  1  0
 12 25  1  0
 13 26  1  0
M  END
$$$$
