
     RDKit          3D

 26 27  0  0  0  0  0  0  0  0999 V2000
    1.3384    0.5962    0.7470 N   0  0  0  0  0  0  0  0  0  0  0  0
    2.4977    0.0449    0.2774 C   0  0  0  0  0  0  0  0  0  0  0  0
    0.4146    1.3344   -0.1272 C   0  0  0  0  0  0  0  0  0  0  0  0
   -0.8285    0.5371   -0.4803 C   0  0  0  0  0  0  0  0  0  0  0  0
    2.9729   -1.0819    0.6799 N   0  0  0  0  0  0  0  0  0  0  0  0
    0.6389   -0.0674    1.8579 C   0  0  0  0  0  0  0  0  0  0  0  0
   -1.1858   -0.6273    0.2277 C   0  0  0  0  0  0  0  0  0  0  0  0
   -0.2882   -1.1580    1.3204 C   0  0  0  0  0  0  0  0  0  0  0  0
    3.1712    0.8029   -0.6157 N   0  0  0  0  0  0  0  0  0  0  0  0
   -1.6713    0.9978   -1.5045 C   0  0  0  0  0  0  0  0  0  0  0  0
   -2.3493   -1.3266   -0.1214 C   0  0  0  0  0  0  0  0  0  0  0  0
   -2.8343    0.3016   -1.8358 C   0  0  0  0  0  0  0  0  0  0  0  0
   -3.1710   -0.8607   -1.1467 C   0  0  0  0  0  0  0  0  0  0  0  0
    0.0977    2.2440    0.3982 H   0  0  0  0  0  0  0  0  0  0  0  0
    0.9021    1.6537   -1.0552 H   0  0  0  0  0  0  0  0  0  0  0  0
    3.8358   -1.2892    0.1785 H   0  0  0  0  0  0  0  0  0  0  0  0
    1.3454   -0.4864    2.5843 H   0  0  0  0  0  0  0  0  0  0  0  0
    0.0545    0.6836    2.4064 H   0  0  0  0  0  0  0  0  0  0  0  0
    0.2968   -1.9897    0.9106 H   0  0  0  0  0  0  0  0  0  0  0  0
   -0.8941   -1.5472    2.1470 H   0  0  0  0  0  0  0  0  0  0  0  0
    3.1086    1.7896   -0.3969 H   0  0  0  0  0  0  0  0  0  0  0  0
    4.1347    0.5311   -0.7551 H   0  0  0  0  0  0  0  0  0  0  0  0
   -1.4217    1.9022   -2.0550 H   0  0  0  0  0  0  0  0  0  0  0  0
   -2.6172   -2.2406    0.4038 H   0  0  0  0  0  0  0  0  0  0  0  0
   -3.4756    0.6635   -2.6351 H   0  0  0  0  0  0  0  0  0  0  0  0
   -4.0723   -1.4077   -1.4104 H   0  0  0  0  0  0  0  0  0  0  0  0
  2  1  1  0
  3  1  1  0
  4  3  1  0
  5  2  2  3
  6  1  1  0
  7  8  1  0
  8  6  1  0
  9  2  1  0
 10  4  2  0
 11  7  2  0
 12 10  1  0
 13 11  1  0
  4  7  1  0
 12 13  2  0
  3 14  1  0
  3 15  1  0
  5 16  1  0
  6 17  1  0
  6 18  1  0
  8 19  1  0
  8 20  1  0
  9 21  1  0
  9 22  1  0
 10 23  1  0
 11 24  1  0
 12 25  1  0
 13 26  1  0
M  END
$$$$
