
     RDKit          3D

 21 12  0  0  0  0  0  0  0  0999 V2000
   -0.0029    0.3978    0.0000 O   0  0  0  0  0  0  0  0  0  0  0  0
    0.0000    0.0000    0.0000 Mg  0  0  0  0  0 15  0  0  0  0  0  0
   -0.0026    0.3978    0.0000 O   0  0  0  0  0  0  0  0  0  0  0  0
   -0.0033    0.3978    0.0000 O   0  0  0  0  0  0  0  0  0  0  0  0
   -0.0016    0.3978    0.0000 O   0  0  0  0  0  0  0  0  0  0  0  0
    0.0000    0.0000    0.0000 Cl  0  0  0  0  0  0  0  0  0  0  0  0
    0.0000    0.0000    0.0000 Cl  0  0  0  0  0  0  0  0  0  0  0  0
   -0.0031    0.3978    0.0000 O   0  0  0  0  0  0  0  0  0  0  0  0
   -0.0023    0.3978    0.0000 O   0  0  0  0  0  0  0  0  0  0  0  0
    0.7649   -0.1932    0.0000 H   0  0  0  0  0  0  0  0  0  0  0  0
   -0.7620   -0.2046    0.0000 H   0  0  0  0  0  0  0  0  0  0  0  0
    0.7647   -0.1940    0.0000 H   0  0  0  0  0  0  0  0  0  0  0  0
   -0.7622   -0.2038    0.0000 H   0  0  0  0  0  0  0  0  0  0  0  0
   -0.7618   -0.2052    0.0000 H   0  0  0  0  0  0  0  0  0  0  0  0
    0.7651   -0.1926    0.0000 H   0  0  0  0  0  0  0  0  0  0  0  0
   -0.7627   -0.2020    0.0000 H   0  0  0  0  0  0  0  0  0  0  0  0
    0.7643   -0.1958    0.0000 H   0  0  0  0  0  0  0  0  0  0  0  0
    0.7650   -0.1930    0.0000 H   0  0  0  0  0  0  0  0  0  0  0  0
   -0.7619   -0.2048    0.0000 H   0  0  0  0  0  0  0  0  0  0  0  0
   -0.7623   -0.2033    0.0000 H   0  0  0  0  0  0  0  0  0  0  0  0
    0.7646   -0.1945    0.0000 H   0  0  0  0  0  0  0  0  0  0  0  0
  1 10  1  0
  1 11  1  0
  3 12  1  0
  3 13  1  0
  4 14  1  0
  4 15  1  0
  5 16  1  0
  5 17  1  0
  8 18  1  0
  8 19  1  0
  9 20  1  0
  9 21  1  0
M  CHG  3   2   2   6  -1   7  -1
M  END
$$$$
