
     RDKit          3D

 21 12  0  0  0  0  0  0  0  0999 V2000
   -0.0016    0.3978    0.0000 O   0  0  0  0  0  0  0  0  0  0  0  0
    0.0000    0.0000    0.0000 Mg  0  0  0  0  0 15  0  0  0  0  0  0
    0.0005    0.3978    0.0000 O   0  0  0  0  0  0  0  0  0  0  0  0
    0.0065    0.3978    0.0000 O   0  0  0  0  0  0  0  0  0  0  0  0
    0.0044    0.3978    0.0000 O   0  0  0  0  0  0  0  0  0  0  0  0
    0.0000    0.0000    0.0000 Cl  0  0  0  0  0  0  0  0  0  0  0  0
    0.0000    0.0000    0.0000 Cl  0  0  0  0  0  0  0  0  0  0  0  0
    0.0102    0.3977    0.0000 O   0  0  0  0  0  0  0  0  0  0  0  0
   -0.0003    0.3978    0.0000 O   0  0  0  0  0  0  0  0  0  0  0  0
   -0.7627   -0.2019    0.0000 H   0  0  0  0  0  0  0  0  0  0  0  0
    0.7643   -0.1959    0.0000 H   0  0  0  0  0  0  0  0  0  0  0  0
   -0.7637   -0.1980    0.0000 H   0  0  0  0  0  0  0  0  0  0  0  0
    0.7632   -0.1998    0.0000 H   0  0  0  0  0  0  0  0  0  0  0  0
   -0.7666   -0.1865    0.0000 H   0  0  0  0  0  0  0  0  0  0  0  0
    0.7601   -0.2113    0.0000 H   0  0  0  0  0  0  0  0  0  0  0  0
   -0.7656   -0.1904    0.0000 H   0  0  0  0  0  0  0  0  0  0  0  0
    0.7612   -0.2074    0.0000 H   0  0  0  0  0  0  0  0  0  0  0  0
    0.7581   -0.2185    0.0000 H   0  0  0  0  0  0  0  0  0  0  0  0
   -0.7683   -0.1792    0.0000 H   0  0  0  0  0  0  0  0  0  0  0  0
   -0.7633   -0.1995    0.0000 H   0  0  0  0  0  0  0  0  0  0  0  0
    0.7636   -0.1983    0.0000 H   0  0  0  0  0  0  0  0  0  0  0  0
  1 10  1  0
  1 11  1  0
  3 12  1  0
  3 13  1  0
  4 14  1  0
  4 15  1  0
  5 16  1  0
  5 17  1  0
  8 18  1  0
  8 19  1  0
  9 20  1  0
  9 21  1  0
M  CHG  3   2   2   6  -1   7  -1
M  END
$$$$
