
     RDKit          3D

 21 12  0  0  0  0  0  0  0  0999 V2000
    0.0050    0.3978    0.0000 O   0  0  0  0  0  0  0  0  0  0  0  0
    0.0000    0.0000    0.0000 Mg  0  0  0  0  0 15  0  0  0  0  0  0
    0.0221    0.3972    0.0000 O   0  0  0  0  0  0  0  0  0  0  0  0
    0.0020    0.3978    0.0000 O   0  0  0  0  0  0  0  0  0  0  0  0
    0.0132    0.3976    0.0000 O   0  0  0  0  0  0  0  0  0  0  0  0
    0.0000    0.0000    0.0000 Cl  0  0  0  0  0  0  0  0  0  0  0  0
    0.0000    0.0000    0.0000 Cl  0  0  0  0  0  0  0  0  0  0  0  0
    0.0186    0.3974    0.0000 O   0  0  0  0  0  0  0  0  0  0  0  0
    0.0049    0.3978    0.0000 O   0  0  0  0  0  0  0  0  0  0  0  0
   -0.7659   -0.1893    0.0000 H   0  0  0  0  0  0  0  0  0  0  0  0
    0.7609   -0.2085    0.0000 H   0  0  0  0  0  0  0  0  0  0  0  0
   -0.7733   -0.1562    0.0000 H   0  0  0  0  0  0  0  0  0  0  0  0
    0.7513   -0.2410    0.0000 H   0  0  0  0  0  0  0  0  0  0  0  0
    0.7625   -0.2027    0.0000 H   0  0  0  0  0  0  0  0  0  0  0  0
   -0.7644   -0.1951    0.0000 H   0  0  0  0  0  0  0  0  0  0  0  0
    0.7565   -0.2241    0.0000 H   0  0  0  0  0  0  0  0  0  0  0  0
   -0.7696   -0.1735    0.0000 H   0  0  0  0  0  0  0  0  0  0  0  0
   -0.7719   -0.1630    0.0000 H   0  0  0  0  0  0  0  0  0  0  0  0
    0.7533   -0.2344    0.0000 H   0  0  0  0  0  0  0  0  0  0  0  0
   -0.7659   -0.1895    0.0000 H   0  0  0  0  0  0  0  0  0  0  0  0
    0.7610   -0.2083    0.0000 H   0  0  0  0  0  0  0  0  0  0  0  0
  1 10  1  0
  1 11  1  0
  3 12  1  0
  3 13  1  0
  4 14  1  0
  4 15  1  0
  5 16  1  0
  5 17  1  0
  8 18  1  0
  8 19  1  0
  9 20  1  0
  9 21  1  0
M  CHG  3   2   2   6  -1   7  -1
M  END
$$$$
