
     RDKit          3D

 21 12  0  0  0  0  0  0  0  0999 V2000
   -0.0004    0.3978    0.0000 O   0  0  0  0  0  0  0  0  0  0  0  0
    0.0000    0.0000    0.0000 Mg  0  0  0  0  0 15  0  0  0  0  0  0
    0.0000    0.3978    0.0000 O   0  0  0  0  0  0  0  0  0  0  0  0
   -0.0002    0.3978    0.0000 O   0  0  0  0  0  0  0  0  0  0  0  0
   -0.0016    0.3978    0.0000 O   0  0  0  0  0  0  0  0  0  0  0  0
    0.0000    0.0000    0.0000 Cl  0  0  0  0  0  0  0  0  0  0  0  0
    0.0000    0.0000    0.0000 Cl  0  0  0  0  0  0  0  0  0  0  0  0
   -0.0021    0.3978    0.0000 O   0  0  0  0  0  0  0  0  0  0  0  0
   -0.0007    0.3978    0.0000 O   0  0  0  0  0  0  0  0  0  0  0  0
   -0.7633   -0.1997    0.0000 H   0  0  0  0  0  0  0  0  0  0  0  0
    0.7637   -0.1982    0.0000 H   0  0  0  0  0  0  0  0  0  0  0  0
    0.7635   -0.1990    0.0000 H   0  0  0  0  0  0  0  0  0  0  0  0
   -0.7635   -0.1988    0.0000 H   0  0  0  0  0  0  0  0  0  0  0  0
   -0.7634   -0.1993    0.0000 H   0  0  0  0  0  0  0  0  0  0  0  0
    0.7636   -0.1986    0.0000 H   0  0  0  0  0  0  0  0  0  0  0  0
    0.7643   -0.1958    0.0000 H   0  0  0  0  0  0  0  0  0  0  0  0
   -0.7627   -0.2020    0.0000 H   0  0  0  0  0  0  0  0  0  0  0  0
   -0.7624   -0.2030    0.0000 H   0  0  0  0  0  0  0  0  0  0  0  0
    0.7645   -0.1948    0.0000 H   0  0  0  0  0  0  0  0  0  0  0  0
    0.7638   -0.1975    0.0000 H   0  0  0  0  0  0  0  0  0  0  0  0
   -0.7631   -0.2003    0.0000 H   0  0  0  0  0  0  0  0  0  0  0  0
  1 10  1  0
  1 11  1  0
  3 12  1  0
  3 13  1  0
  4 14  1  0
  4 15  1  0
  5 16  1  0
  5 17  1  0
  8 18  1  0
  8 19  1  0
  9 20  1  0
  9 21  1  0
M  CHG  3   2   2   6  -1   7  -1
M  END
$$$$
