
     RDKit          3D

 21 12  0  0  0  0  0  0  0  0999 V2000
    0.0026    0.3978    0.0000 O   0  0  0  0  0  0  0  0  0  0  0  0
    0.0000    0.0000    0.0000 Mg  0  0  0  0  0 15  0  0  0  0  0  0
    0.0018    0.3978    0.0000 O   0  0  0  0  0  0  0  0  0  0  0  0
    0.0053    0.3978    0.0000 O   0  0  0  0  0  0  0  0  0  0  0  0
    0.0058    0.3978    0.0000 O   0  0  0  0  0  0  0  0  0  0  0  0
    0.0000    0.0000    0.0000 Cl  0  0  0  0  0  0  0  0  0  0  0  0
    0.0000    0.0000    0.0000 Cl  0  0  0  0  0  0  0  0  0  0  0  0
    0.0020    0.3978    0.0000 O   0  0  0  0  0  0  0  0  0  0  0  0
    0.0004    0.3978    0.0000 O   0  0  0  0  0  0  0  0  0  0  0  0
    0.7622   -0.2039    0.0000 H   0  0  0  0  0  0  0  0  0  0  0  0
   -0.7647   -0.1939    0.0000 H   0  0  0  0  0  0  0  0  0  0  0  0
   -0.7643   -0.1955    0.0000 H   0  0  0  0  0  0  0  0  0  0  0  0
    0.7626   -0.2023    0.0000 H   0  0  0  0  0  0  0  0  0  0  0  0
    0.7608   -0.2090    0.0000 H   0  0  0  0  0  0  0  0  0  0  0  0
   -0.7660   -0.1888    0.0000 H   0  0  0  0  0  0  0  0  0  0  0  0
   -0.7663   -0.1877    0.0000 H   0  0  0  0  0  0  0  0  0  0  0  0
    0.7605   -0.2100    0.0000 H   0  0  0  0  0  0  0  0  0  0  0  0
   -0.7645   -0.1950    0.0000 H   0  0  0  0  0  0  0  0  0  0  0  0
    0.7625   -0.2028    0.0000 H   0  0  0  0  0  0  0  0  0  0  0  0
    0.7633   -0.1996    0.0000 H   0  0  0  0  0  0  0  0  0  0  0  0
   -0.7637   -0.1982    0.0000 H   0  0  0  0  0  0  0  0  0  0  0  0
  1 10  1  0
  1 11  1  0
  3 12  1  0
  3 13  1  0
  4 14  1  0
  4 15  1  0
  5 16  1  0
  5 17  1  0
  8 18  1  0
  8 19  1  0
  9 20  1  0
  9 21  1  0
M  CHG  3   2   2   6  -1   7  -1
M  END
$$$$
