
     RDKit          3D

 48 48  0  0  0  0  0  0  0  0999 V2000
   -0.1834   -0.9939    0.0372 C   0  0  0  0  0  0  0  0  0  0  0  0
   -1.5056   -0.5697    0.1517 C   0  0  0  0  0  0  0  0  0  0  0  0
    0.8463   -0.0476   -0.0560 C   0  0  0  0  0  0  0  0  0  0  0  0
   -2.5315   -1.4632    0.2513 O   0  0  0  0  0  0  0  0  0  0  0  0
   -0.8059    1.7292    0.0579 C   0  0  0  0  0  0  0  0  0  0  0  0
   -1.8230    0.7827    0.1649 C   0  0  0  0  0  0  0  0  0  0  0  0
    0.5231    1.3162   -0.0574 C   0  0  0  0  0  0  0  0  0  0  0  0
    2.2715   -0.4884   -0.2141 C   0  0  0  0  0  0  0  0  0  0  0  0
    0.1137   -1.0434   -0.1166 C   0  0  0  0  0  0  0  0  0  0  0  0
   -0.6118    0.1544   -0.1243 C   0  0  0  0  0  0  0  0  0  0  0  0
   -0.4469   -2.2528   -0.4166 O   0  0  0  0  0  0  0  0  0  0  0  0
   -2.0723    0.2081   -0.4644 C   0  0  0  0  0  0  0  0  0  0  0  0
    1.4703   -1.0608    0.2037 C   0  0  0  0  0  0  0  0  0  0  0  0
    0.0641    1.3416    0.2000 C   0  0  0  0  0  0  0  0  0  0  0  0
    1.4236    1.3271    0.5215 C   0  0  0  0  0  0  0  0  0  0  0  0
    2.1270    0.1254    0.5233 C   0  0  0  0  0  0  0  0  0  0  0  0
    1.8167    0.0643   -0.1039 C   0  0  0  0  0  0  0  0  0  0  0  0
   -0.9725    0.0473    0.0379 C   0  0  0  0  0  0  0  0  0  0  0  0
    1.0934    1.1131   -0.6578 C   0  0  0  0  0  0  0  0  0  0  0  0
    1.1681   -1.0000    0.5134 C   0  0  0  0  0  0  0  0  0  0  0  0
   -0.3007    1.1029   -0.5922 C   0  0  0  0  0  0  0  0  0  0  0  0
   -0.2274   -1.0094    0.5787 C   0  0  0  0  0  0  0  0  0  0  0  0
    3.1766    0.1139   -0.1906 O   0  0  0  0  0  0  0  0  0  0  0  0
   -2.4718    0.0191    0.0789 C   0  0  0  0  0  0  0  0  0  0  0  0
    0.0572   -2.0526    0.0198 H   0  0  0  0  0  0  0  0  0  0  0  0
   -2.1607   -2.3603    0.2310 H   0  0  0  0  0  0  0  0  0  0  0  0
   -1.0486    2.7884    0.0613 H   0  0  0  0  0  0  0  0  0  0  0  0
   -2.8584    1.0978    0.2539 H   0  0  0  0  0  0  0  0  0  0  0  0
    1.3058    2.0663   -0.1475 H   0  0  0  0  0  0  0  0  0  0  0  0
    2.5099   -0.6101   -1.2751 H   0  0  0  0  0  0  0  0  0  0  0  0
    2.4452   -1.4399    0.2996 H   0  0  0  0  0  0  0  0  0  0  0  0
    2.9581    0.2451    0.2215 H   0  0  0  0  0  0  0  0  0  0  0  0
   -1.3855   -2.1276   -0.6226 H   0  0  0  0  0  0  0  0  0  0  0  0
   -2.2381   -0.1607   -1.4817 H   0  0  0  0  0  0  0  0  0  0  0  0
   -2.6483   -0.3981    0.2422 H   0  0  0  0  0  0  0  0  0  0  0  0
   -2.4617    1.2306   -0.4162 H   0  0  0  0  0  0  0  0  0  0  0  0
    2.0139   -2.0015    0.2035 H   0  0  0  0  0  0  0  0  0  0  0  0
   -0.4649    2.2923    0.2051 H   0  0  0  0  0  0  0  0  0  0  0  0
    1.9327    2.2547    0.7703 H   0  0  0  0  0  0  0  0  0  0  0  0
    3.1843    0.1107    0.7728 H   0  0  0  0  0  0  0  0  0  0  0  0
    1.6125    1.9351   -1.1421 H   0  0  0  0  0  0  0  0  0  0  0  0
    1.7247   -1.8263    0.9434 H   0  0  0  0  0  0  0  0  0  0  0  0
   -0.8585    1.9246   -1.0353 H   0  0  0  0  0  0  0  0  0  0  0  0
   -0.7320   -1.8469    1.0553 H   0  0  0  0  0  0  0  0  0  0  0  0
    3.5408   -0.6778    0.2374 H   0  0  0  0  0  0  0  0  0  0  0  0
   -2.8282   -0.5069    0.9708 H   0  0  0  0  0  0  0  0  0  0  0  0
   -2.8608   -0.4872   -0.8098 H   0  0  0  0  0  0  0  0  0  0  0  0
   -2.8807    1.0343    0.1160 H   0  0  0  0  0  0  0  0  0  0  0  0
  2  1  2  0
  3  1  1  0
  4  2  1  0
  5  7  1  0
  6  2  1  0
  7  3  2  0
  8  3  1  0
  6  5  2  0
 10  9  2  0
 11  9  1  0
 12 10  1  0
 13  9  1  0
 14 10  1  0
 15 14  2  0
 16 13  2  0
 16 15  1  0
 18 21  2  0
 19 17  2  0
 20 17  1  0
 21 19  1  0
 22 20  2  0
 23 17  1  0
 24 18  1  0
 22 18  1  0
  1 25  1  0
  4 26  1  0
  5 27  1  0
  6 28  1  0
  7 29  1  0
  8 30  1  0
  8 31  1  0
  8 32  1  0
 11 33  1  0
 12 34  1  0
 12 35  1  0
 12 36  1  0
 13 37  1  0
 14 38  1  0
 15 39  1  0
 16 40  1  0
 19 41  1  0
 20 42  1  0
 21 43  1  0
 22 44  1  0
 23 45  1  0
 24 46  1  0
 24 47  1  0
 24 48  1  0
M  END
$$$$
