
     RDKit          3D

 48 48  0  0  0  0  0  0  0  0999 V2000
   -0.0296    1.0059    0.1002 C   0  0  0  0  0  0  0  0  0  0  0  0
   -1.4057    0.7984    0.0322 C   0  0  0  0  0  0  0  0  0  0  0  0
    0.8438   -0.0886    0.0418 C   0  0  0  0  0  0  0  0  0  0  0  0
   -2.2844    1.8400    0.0931 O   0  0  0  0  0  0  0  0  0  0  0  0
   -1.0662   -1.5732   -0.1770 C   0  0  0  0  0  0  0  0  0  0  0  0
   -1.9289   -0.4814   -0.1034 C   0  0  0  0  0  0  0  0  0  0  0  0
    0.3149   -1.3777   -0.1099 C   0  0  0  0  0  0  0  0  0  0  0  0
    2.3288    0.1212    0.0794 C   0  0  0  0  0  0  0  0  0  0  0  0
   -0.1257    1.0369    0.1559 C   0  0  0  0  0  0  0  0  0  0  0  0
   -0.5784   -0.2641   -0.0966 C   0  0  0  0  0  0  0  0  0  0  0  0
   -0.9661    2.1100    0.2509 O   0  0  0  0  0  0  0  0  0  0  0  0
   -2.0315   -0.5879   -0.2845 C   0  0  0  0  0  0  0  0  0  0  0  0
    1.2314    1.3061    0.3259 C   0  0  0  0  0  0  0  0  0  0  0  0
    0.3726   -1.2941   -0.1744 C   0  0  0  0  0  0  0  0  0  0  0  0
    1.7334   -1.0272   -0.0044 C   0  0  0  0  0  0  0  0  0  0  0  0
    2.1630    0.2734    0.2459 C   0  0  0  0  0  0  0  0  0  0  0  0
    1.8070    0.0321   -0.2210 C   0  0  0  0  0  0  0  0  0  0  0  0
   -0.9669   -0.0910    0.0791 C   0  0  0  0  0  0  0  0  0  0  0  0
    1.1792    0.8660    0.6982 C   0  0  0  0  0  0  0  0  0  0  0  0
    1.0699   -0.8538   -0.9968 C   0  0  0  0  0  0  0  0  0  0  0  0
   -0.2090    0.8068    0.8431 C   0  0  0  0  0  0  0  0  0  0  0  0
   -0.3170   -0.9123   -0.8514 C   0  0  0  0  0  0  0  0  0  0  0  0
    3.1592    0.0571   -0.3955 O   0  0  0  0  0  0  0  0  0  0  0  0
   -2.4607   -0.1293    0.2118 C   0  0  0  0  0  0  0  0  0  0  0  0
    0.3731    2.0095    0.1986 H   0  0  0  0  0  0  0  0  0  0  0  0
   -1.7789    2.6632    0.1893 H   0  0  0  0  0  0  0  0  0  0  0  0
   -1.4694   -2.5760   -0.2894 H   0  0  0  0  0  0  0  0  0  0  0  0
   -3.0038   -0.6270   -0.1559 H   0  0  0  0  0  0  0  0  0  0  0  0
    0.9764   -2.2388   -0.1761 H   0  0  0  0  0  0  0  0  0  0  0  0
    2.8344   -0.7422    0.5246 H   0  0  0  0  0  0  0  0  0  0  0  0
    2.5843    0.9955    0.6873 H   0  0  0  0  0  0  0  0  0  0  0  0
    2.7111    0.2711   -0.9349 H   0  0  0  0  0  0  0  0  0  0  0  0
   -1.8791    1.8136    0.1179 H   0  0  0  0  0  0  0  0  0  0  0  0
   -2.5976   -0.3243    0.6147 H   0  0  0  0  0  0  0  0  0  0  0  0
   -2.4337   -0.0403   -1.1428 H   0  0  0  0  0  0  0  0  0  0  0  0
   -2.1872   -1.6557   -0.4716 H   0  0  0  0  0  0  0  0  0  0  0  0
    1.5607    2.3230    0.5210 H   0  0  0  0  0  0  0  0  0  0  0  0
    0.0603   -2.3180   -0.3690 H   0  0  0  0  0  0  0  0  0  0  0  0
    2.4573   -1.8356   -0.0675 H   0  0  0  0  0  0  0  0  0  0  0  0
    3.2205    0.4843    0.3786 H   0  0  0  0  0  0  0  0  0  0  0  0
    1.7463    1.5652    1.3039 H   0  0  0  0  0  0  0  0  0  0  0  0
    1.5724   -1.4951   -1.7150 H   0  0  0  0  0  0  0  0  0  0  0  0
   -0.6978    1.4656    1.5574 H   0  0  0  0  0  0  0  0  0  0  0  0
   -0.8862   -1.6035   -1.4684 H   0  0  0  0  0  0  0  0  0  0  0  0
    3.5349    0.7165    0.2100 H   0  0  0  0  0  0  0  0  0  0  0  0
   -2.9162    0.5836   -0.4823 H   0  0  0  0  0  0  0  0  0  0  0  0
   -2.7687    0.1231    1.2319 H   0  0  0  0  0  0  0  0  0  0  0  0
   -2.8465   -1.1310   -0.0051 H   0  0  0  0  0  0  0  0  0  0  0  0
  2  1  2  0
  3  1  1  0
  4  2  1  0
  5  7  1  0
  6  2  1  0
  7  3  2  0
  8  3  1  0
  6  5  2  0
 10  9  2  0
 11  9  1  0
 12 10  1  0
 13  9  1  0
 14 10  1  0
 15 14  2  0
 16 13  2  0
 16 15  1  0
 18 21  2  0
 19 17  2  0
 20 17  1  0
 21 19  1  0
 22 20  2  0
 23 17  1  0
 24 18  1  0
 22 18  1  0
  1 25  1  0
  4 26  1  0
  5 27  1  0
  6 28  1  0
  7 29  1  0
  8 30  1  0
  8 31  1  0
  8 32  1  0
 11 33  1  0
 12 34  1  0
 12 35  1  0
 12 36  1  0
 13 37  1  0
 14 38  1  0
 15 39  1  0
 16 40  1  0
 19 41  1  0
 20 42  1  0
 21 43  1  0
 22 44  1  0
 23 45  1  0
 24 46  1  0
 24 47  1  0
 24 48  1  0
M  END
$$$$
