
     RDKit          3D

 24 24  0  0  0  0  0  0  0  0999 V2000
    0.0321   -1.0254   -0.7284 C   0  0  0  0  0  0  0  0  0  0  0  0
   -1.1558   -0.3399   -0.5943 C   0  0  0  0  0  0  0  0  0  0  0  0
    1.1905   -0.3040   -0.5262 C   0  0  0  0  0  0  0  0  0  0  0  0
   -2.3788   -1.0028   -0.7842 O   0  0  0  0  0  0  0  0  0  0  0  0
   -0.0649    1.6892   -0.0806 C   0  0  0  0  0  0  0  0  0  0  0  0
   -1.2382    0.9963   -0.2764 C   0  0  0  0  0  0  0  0  0  0  0  0
    1.1372    1.0328   -0.2073 C   0  0  0  0  0  0  0  0  0  0  0  0
    2.4779   -1.0462   -0.6713 C   0  0  0  0  0  0  0  0  0  0  0  0
    0.5747    0.7132    0.2605 C   0  0  0  0  0  0  0  0  0  0  0  0
    0.6031   -0.6601    0.1330 C   0  0  0  0  0  0  0  0  0  0  0  0
    1.7373    1.4893    0.2736 O   0  0  0  0  0  0  0  0  0  0  0  0
    1.9195   -1.3514    0.0035 C   0  0  0  0  0  0  0  0  0  0  0  0
   -0.6507    1.3382    0.3793 C   0  0  0  0  0  0  0  0  0  0  0  0
   -0.5727   -1.3798    0.1258 C   0  0  0  0  0  0  0  0  0  0  0  0
   -1.7963   -0.7606    0.2439 C   0  0  0  0  0  0  0  0  0  0  0  0
   -1.8149    0.6112    0.3709 C   0  0  0  0  0  0  0  0  0  0  0  0
   -1.3944   -0.0099    0.0577 C   0  0  0  0  0  0  0  0  0  0  0  0
    1.3676   -0.0069   -0.0575 C   0  0  0  0  0  0  0  0  0  0  0  0
   -0.7070    1.1878    0.0994 C   0  0  0  0  0  0  0  0  0  0  0  0
   -0.7201   -1.2328   -0.0424 C   0  0  0  0  0  0  0  0  0  0  0  0
    0.6876    1.2056    0.0422 C   0  0  0  0  0  0  0  0  0  0  0  0
    0.6756   -1.2191   -0.0999 C   0  0  0  0  0  0  0  0  0  0  0  0
   -2.7812    0.0566    0.1195 O   0  0  0  0  0  0  0  0  0  0  0  0
    2.8719    0.0187   -0.1189 C   0  0  0  0  0  0  0  0  0  0  0  0
  2  1  2  0
  3  1  1  0
  4  2  1  0
  5  7  1  0
  6  2  1  0
  7  3  2  0
  8  3  1  0
  6  5  2  0
 10  9  2  0
 11  9  1  0
 12 10  1  0
 13  9  1  0
 14 10  1  0
 15 14  2  0
 16 13  2  0
 16 15  1  0
 18 21  2  0
 19 17  2  0
 20 17  1  0
 21 19  1  0
 22 20  2  0
 23 17  1  0
 24 18  1  0
 22 18  1  0
M  END
