
     RDKit          3D

 48 48  0  0  0  0  0  0  0  0999 V2000
   -0.2102   -0.9710    0.1895 C   0  0  0  0  0  0  0  0  0  0  0  0
   -1.5098   -0.4850    0.3158 C   0  0  0  0  0  0  0  0  0  0  0  0
    0.8329   -0.0940   -0.1382 C   0  0  0  0  0  0  0  0  0  0  0  0
   -2.5495   -1.3114    0.6267 O   0  0  0  0  0  0  0  0  0  0  0  0
   -0.7548    1.7438   -0.1802 C   0  0  0  0  0  0  0  0  0  0  0  0
   -1.7890    0.8634    0.1313 C   0  0  0  0  0  0  0  0  0  0  0  0
    0.5519    1.2684   -0.3095 C   0  0  0  0  0  0  0  0  0  0  0  0
    2.2427   -0.5958   -0.2444 C   0  0  0  0  0  0  0  0  0  0  0  0
    0.2061    0.9981   -0.2766 C   0  0  0  0  0  0  0  0  0  0  0  0
   -0.6144   -0.0382    0.1861 C   0  0  0  0  0  0  0  0  0  0  0  0
   -0.2346    2.2825   -0.4282 O   0  0  0  0  0  0  0  0  0  0  0  0
   -2.0526    0.1784    0.5554 C   0  0  0  0  0  0  0  0  0  0  0  0
    1.5390    0.7654   -0.6118 C   0  0  0  0  0  0  0  0  0  0  0  0
   -0.0586   -1.3221    0.3043 C   0  0  0  0  0  0  0  0  0  0  0  0
    1.2770   -1.5583   -0.0309 C   0  0  0  0  0  0  0  0  0  0  0  0
    2.0761   -0.5141   -0.4892 C   0  0  0  0  0  0  0  0  0  0  0  0
    1.7993    0.2047   -0.1897 C   0  0  0  0  0  0  0  0  0  0  0  0
   -0.9721   -0.0454    0.0488 C   0  0  0  0  0  0  0  0  0  0  0  0
    0.9775    1.2526   -0.5854 C   0  0  0  0  0  0  0  0  0  0  0  0
    1.2589   -0.9656    0.3328 C   0  0  0  0  0  0  0  0  0  0  0  0
   -0.4074    1.1307   -0.4617 C   0  0  0  0  0  0  0  0  0  0  0  0
   -0.1273   -1.0868    0.4563 C   0  0  0  0  0  0  0  0  0  0  0  0
    3.1463    0.3660   -0.3274 O   0  0  0  0  0  0  0  0  0  0  0  0
   -2.4585   -0.1639    0.2135 C   0  0  0  0  0  0  0  0  0  0  0  0
    0.0025   -2.0247    0.3424 H   0  0  0  0  0  0  0  0  0  0  0  0
   -2.2062   -2.2145    0.7222 H   0  0  0  0  0  0  0  0  0  0  0  0
   -0.9660    2.8006   -0.3195 H   0  0  0  0  0  0  0  0  0  0  0  0
   -2.8070    1.2273    0.2340 H   0  0  0  0  0  0  0  0  0  0  0  0
    1.3503    1.9686   -0.5457 H   0  0  0  0  0  0  0  0  0  0  0  0
    2.2628   -1.6307   -0.6019 H   0  0  0  0  0  0  0  0  0  0  0  0
    2.8186    0.0044   -0.9565 H   0  0  0  0  0  0  0  0  0  0  0  0
    2.7308   -0.5495    0.7339 H   0  0  0  0  0  0  0  0  0  0  0  0
   -1.1670    2.3331   -0.1693 H   0  0  0  0  0  0  0  0  0  0  0  0
   -2.6158    0.5401   -0.3109 H   0  0  0  0  0  0  0  0  0  0  0  0
   -2.5273   -0.7486    0.8942 H   0  0  0  0  0  0  0  0  0  0  0  0
   -2.1292    0.9055    1.3701 H   0  0  0  0  0  0  0  0  0  0  0  0
    2.1577    1.5840   -0.9688 H   0  0  0  0  0  0  0  0  0  0  0  0
   -0.6639   -2.1532    0.6601 H   0  0  0  0  0  0  0  0  0  0  0  0
    1.6925   -2.5580    0.0660 H   0  0  0  0  0  0  0  0  0  0  0  0
    3.1150   -0.6945   -0.7507 H   0  0  0  0  0  0  0  0  0  0  0  0
    1.4130    2.1632   -0.9863 H   0  0  0  0  0  0  0  0  0  0  0  0
    1.8934   -1.7867    0.6500 H   0  0  0  0  0  0  0  0  0  0  0  0
   -1.0420    1.9592   -0.7671 H   0  0  0  0  0  0  0  0  0  0  0  0
   -0.5464   -2.0003    0.8723 H   0  0  0  0  0  0  0  0  0  0  0  0
    3.5859   -0.4412   -0.0144 H   0  0  0  0  0  0  0  0  0  0  0  0
   -2.9838    0.4126   -0.5552 H   0  0  0  0  0  0  0  0  0  0  0  0
   -2.7562    0.2064    1.1992 H   0  0  0  0  0  0  0  0  0  0  0  0
   -2.7805   -1.2058    0.1142 H   0  0  0  0  0  0  0  0  0  0  0  0
  2  1  2  0
  3  1  1  0
  4  2  1  0
  5  7  1  0
  6  2  1  0
  7  3  2  0
  8  3  1  0
  6  5  2  0
 10  9  2  0
 11  9  1  0
 12 10  1  0
 13  9  1  0
 14 10  1  0
 15 14  2  0
 16 13  2  0
 16 15  1  0
 18 21  2  0
 19 17  2  0
 20 17  1  0
 21 19  1  0
 22 20  2  0
 23 17  1  0
 24 18  1  0
 22 18  1  0
  1 25  1  0
  4 26  1  0
  5 27  1  0
  6 28  1  0
  7 29  1  0
  8 30  1  0
  8 31  1  0
  8 32  1  0
 11 33  1  0
 12 34  1  0
 12 35  1  0
 12 36  1  0
 13 37  1  0
 14 38  1  0
 15 39  1  0
 16 40  1  0
 19 41  1  0
 20 42  1  0
 21 43  1  0
 22 44  1  0
 23 45  1  0
 24 46  1  0
 24 47  1  0
 24 48  1  0
M  END
$$$$
