
     RDKit          3D

 29 28  0  0  0  0  0  0  0  0999 V2000
   -0.7820   -0.8774   -0.3704 C   0  0  1  0  0  0  0  0  0  0  0  0
    0.6191   -0.4530   -0.1322 C   0  0  0  0  0  0  0  0  0  0  0  0
   -1.6812    0.2641    0.0763 C   0  0  1  0  0  0  0  0  0  0  0  0
   -3.0819   -0.0155   -0.0928 N   0  0  0  0  0  0  0  0  0  0  0  0
   -0.9740   -1.1615   -1.7210 O   0  0  0  0  0  0  0  0  0  0  0  0
    1.2370    0.4663   -0.9882 C   0  0  0  0  0  0  0  0  0  0  0  0
    1.3801   -0.9229    0.9167 C   0  0  0  0  0  0  0  0  0  0  0  0
   -3.8673    1.1250    0.3576 C   0  0  0  0  0  0  0  0  0  0  0  0
   -1.3245    0.7669    1.4387 C   0  0  0  0  0  0  0  0  0  0  0  0
    2.5310    0.8924   -0.8130 C   0  0  0  0  0  0  0  0  0  0  0  0
    2.6881   -0.4917    1.0932 C   0  0  0  0  0  0  0  0  0  0  0  0
    3.2556    0.4073    0.2352 C   0  0  0  0  0  0  0  0  0  0  0  0
    0.0049   -0.0413    0.0033 S   0  0  0  0  0  0  0  0  0  0  0  0
   -0.0347   -0.9119   -1.2259 O   0  0  0  0  0  0  0  0  0  0  0  0
    0.0162   -0.8922    1.2468 O   0  0  0  0  0  0  0  0  0  0  0  0
   -1.3611    0.9294    0.0113 O   0  0  0  0  0  0  0  0  0  0  0  0
    1.3747    0.9159   -0.0355 O   0  0  0  0  0  0  0  0  0  0  0  0
    0.6480    0.8979    0.0672 C   0  0  1  0  0  0  0  0  0  0  0  0
   -0.6875    0.3232   -0.1652 C   0  0  0  0  0  0  0  0  0  0  0  0
    1.7153   -0.1808    0.0018 C   0  0  1  0  0  0  0  0  0  0  0  0
    2.9775    0.4858    0.2426 N   0  0  0  0  0  0  0  0  0  0  0  0
    0.8972    1.8525   -0.8982 O   0  0  0  0  0  0  0  0  0  0  0  0
   -1.5158    0.1614    0.9266 C   0  0  0  0  0  0  0  0  0  0  0  0
   -1.1404   -0.0538   -1.4011 C   0  0  0  0  0  0  0  0  0  0  0  0
    4.0361   -0.5040    0.1910 C   0  0  0  0  0  0  0  0  0  0  0  0
    1.4434   -1.3014    0.9573 C   0  0  0  0  0  0  0  0  0  0  0  0
   -2.7771   -0.3644    0.8148 C   0  0  0  0  0  0  0  0  0  0  0  0
   -2.3996   -0.5855   -1.5556 C   0  0  0  0  0  0  0  0  0  0  0  0
   -3.1972   -0.7310   -0.4382 C   0  0  0  0  0  0  0  0  0  0  0  0
  2  1  1  0
  3  1  1  0
  4  3  1  0
  1  5  1  6
  6  2  2  0
  7  2  1  0
  8  4  1  0
  3  9  1  1
 10  6  1  0
 11  7  2  0
 12 10  2  0
 12 11  1  0
 14 13  2  0
 15 13  2  0
 16 13  1  0
 17 13  1  0
 19 18  1  0
 20 18  1  0
 21 20  1  0
 18 22  1  6
 23 19  2  0
 24 19  1  0
 25 21  1  0
 20 26  1  1
 27 23  1  0
 28 24  2  0
 29 27  2  0
 29 28  1  0
M  END
