
     RDKit          3D

 61 60  0  0  0  0  0  0  0  0999 V2000
   -0.1797   -1.1817   -0.7326 C   0  0  1  0  0  0  0  0  0  0  0  0
    1.0692   -0.4020   -0.3542 C   0  0  0  0  0  0  0  0  0  0  0  0
   -1.5357   -0.5453   -0.2801 C   0  0  1  0  0  0  0  0  0  0  0  0
   -1.6186   -0.4620    1.1946 N   0  0  0  0  0  0  0  0  0  0  0  0
   -0.1964   -1.4214   -2.1462 O   0  0  0  0  0  0  0  0  0  0  0  0
    1.5783    0.6183   -1.1732 C   0  0  0  0  0  0  0  0  0  0  0  0
    1.7359   -0.6925    0.8466 C   0  0  0  0  0  0  0  0  0  0  0  0
   -2.9648   -0.2014    1.6812 C   0  0  0  0  0  0  0  0  0  0  0  0
   -1.7943    0.8117   -0.9504 C   0  0  0  0  0  0  0  0  0  0  0  0
    2.7242    1.3248   -0.8030 C   0  0  0  0  0  0  0  0  0  0  0  0
    2.8816    0.0145    1.2157 C   0  0  0  0  0  0  0  0  0  0  0  0
    3.3757    1.0221    0.3905 C   0  0  0  0  0  0  0  0  0  0  0  0
   -0.0481    0.3670    0.2627 S   0  0  0  0  0  0  0  0  0  0  0  0
   -0.8909    0.2631    1.4267 O   0  0  0  0  0  0  0  0  0  0  0  0
    0.6566    1.5660   -0.1135 O   0  0  0  0  0  0  0  0  0  0  0  0
   -0.9360   -0.1108   -0.9853 O   0  0  0  0  0  0  0  0  0  0  0  0
    1.0488   -0.8016    0.3276 O   0  0  0  0  0  0  0  0  0  0  0  0
   -0.3477   -0.3714   -0.7035 C   0  0  1  0  0  0  0  0  0  0  0  0
    1.0854   -0.0913   -0.2949 C   0  0  0  0  0  0  0  0  0  0  0  0
   -1.4013    0.5560   -0.0175 C   0  0  1  0  0  0  0  0  0  0  0  0
   -2.7469    0.4516   -0.6387 N   0  0  0  0  0  0  0  0  0  0  0  0
   -0.4557   -0.2305   -2.1313 O   0  0  0  0  0  0  0  0  0  0  0  0
    1.7071    1.1229   -0.6272 C   0  0  0  0  0  0  0  0  0  0  0  0
    1.8180   -1.0504    0.4203 C   0  0  0  0  0  0  0  0  0  0  0  0
   -3.4421   -0.8003   -0.3733 C   0  0  0  0  0  0  0  0  0  0  0  0
   -1.4406    0.3700    1.5024 C   0  0  0  0  0  0  0  0  0  0  0  0
    3.0266    1.3732   -0.2485 C   0  0  0  0  0  0  0  0  0  0  0  0
    3.1380   -0.7976    0.7983 C   0  0  0  0  0  0  0  0  0  0  0  0
    3.7411    0.4135    0.4649 C   0  0  0  0  0  0  0  0  0  0  0  0
   -0.1084   -2.1791   -0.2782 H   0  0  0  0  0  0  0  0  0  0  0  0
   -2.3186   -1.2296   -0.6361 H   0  0  0  0  0  0  0  0  0  0  0  0
   -0.9895    0.2739    1.5205 H   0  0  0  0  0  0  0  0  0  0  0  0
    0.7076   -1.6890   -2.3869 H   0  0  0  0  0  0  0  0  0  0  0  0
    1.0792    0.8724   -2.1066 H   0  0  0  0  0  0  0  0  0  0  0  0
    1.3587   -1.4721    1.5067 H   0  0  0  0  0  0  0  0  0  0  0  0
   -3.6724   -0.9542    1.3196 H   0  0  0  0  0  0  0  0  0  0  0  0
   -3.3209    0.7935    1.3989 H   0  0  0  0  0  0  0  0  0  0  0  0
   -2.9668   -0.2513    2.7747 H   0  0  0  0  0  0  0  0  0  0  0  0
   -1.6385    0.7546   -2.0327 H   0  0  0  0  0  0  0  0  0  0  0  0
   -1.1385    1.5933   -0.5529 H   0  0  0  0  0  0  0  0  0  0  0  0
   -2.8281    1.1382   -0.7972 H   0  0  0  0  0  0  0  0  0  0  0  0
    3.1068    2.1130   -1.4462 H   0  0  0  0  0  0  0  0  0  0  0  0
    3.3868   -0.2211    2.1488 H   0  0  0  0  0  0  0  0  0  0  0  0
    4.2673    1.5727    0.6785 H   0  0  0  0  0  0  0  0  0  0  0  0
   -1.6073   -0.7355   -0.6406 H   0  0  0  0  0  0  0  0  0  0  0  0
    1.7768   -0.5483   -0.2776 H   0  0  0  0  0  0  0  0  0  0  0  0
   -0.5865   -1.4191   -0.4850 H   0  0  0  0  0  0  0  0  0  0  0  0
   -1.1037    1.5963   -0.2032 H   0  0  0  0  0  0  0  0  0  0  0  0
   -2.5882    0.5132   -1.6509 H   0  0  0  0  0  0  0  0  0  0  0  0
    0.4003   -0.5023   -2.5056 H   0  0  0  0  0  0  0  0  0  0  0  0
    1.1625    1.8820   -1.1869 H   0  0  0  0  0  0  0  0  0  0  0  0
    1.3659   -2.0020    0.6922 H   0  0  0  0  0  0  0  0  0  0  0  0
   -4.3865   -0.8067   -0.9272 H   0  0  0  0  0  0  0  0  0  0  0  0
   -3.6964   -0.9058    0.6856 H   0  0  0  0  0  0  0  0  0  0  0  0
   -2.8676   -1.6728   -0.6969 H   0  0  0  0  0  0  0  0  0  0  0  0
   -1.6125   -0.6750    1.7806 H   0  0  0  0  0  0  0  0  0  0  0  0
   -0.4964    0.6845    1.9591 H   0  0  0  0  0  0  0  0  0  0  0  0
   -2.2329    0.9797    1.9509 H   0  0  0  0  0  0  0  0  0  0  0  0
    3.4960    2.3180   -0.5102 H   0  0  0  0  0  0  0  0  0  0  0  0
    3.6960   -1.5451    1.3562 H   0  0  0  0  0  0  0  0  0  0  0  0
    4.7682    0.6096    0.7613 H   0  0  0  0  0  0  0  0  0  0  0  0
  2  1  1  0
  3  1  1  0
  4  3  1  0
  1  5  1  0
  6  2  2  0
  7  2  1  0
  8  4  1  0
  3  9  1  0
 10  6  1  0
 11  7  2  0
 12 10  2  0
 12 11  1  0
 14 13  2  0
 15 13  2  0
 16 13  1  0
 17 13  1  0
 19 18  1  0
 20 18  1  0
 21 20  1  0
 18 22  1  0
 23 19  2  0
 24 19  1  0
 25 21  1  0
 20 26  1  0
 27 23  1  0
 28 24  2  0
 29 27  2  0
 29 28  1  0
  1 30  1  1
  3 31  1  6
  4 32  1  0
  5 33  1  0
  6 34  1  0
  7 35  1  0
  8 36  1  0
  8 37  1  0
  8 38  1  0
  9 39  1  0
  9 40  1  0
  9 41  1  0
 10 42  1  0
 11 43  1  0
 12 44  1  0
 16 45  1  0
 17 46  1  0
 18 47  1  6
 20 48  1  1
 21 49  1  0
 22 50  1  0
 23 51  1  0
 24 52  1  0
 25 53  1  0
 25 54  1  0
 25 55  1  0
 26 56  1  0
 26 57  1  0
 26 58  1  0
 27 59  1  0
 28 60  1  0
 29 61  1  0
M  END
$$$$
