
     RDKit          3D

 61 60  0  0  0  0  0  0  0  0999 V2000
   -0.1068    0.7913   -0.8261 C   0  0  1  0  0  0  0  0  0  0  0  0
    1.1922    0.3726   -0.1623 C   0  0  0  0  0  0  0  0  0  0  0  0
   -1.3402   -0.0743   -0.4058 C   0  0  1  0  0  0  0  0  0  0  0  0
   -2.5668    0.4920   -1.0186 N   0  0  0  0  0  0  0  0  0  0  0  0
   -0.3852    2.1659   -0.5106 O   0  0  0  0  0  0  0  0  0  0  0  0
    1.3590    0.4482    1.2305 C   0  0  0  0  0  0  0  0  0  0  0  0
    2.2544   -0.1061   -0.9381 C   0  0  0  0  0  0  0  0  0  0  0  0
   -3.7704    0.1278   -0.2852 C   0  0  0  0  0  0  0  0  0  0  0  0
   -1.1697   -1.5384   -0.8205 C   0  0  0  0  0  0  0  0  0  0  0  0
    2.5555    0.0506    1.8298 C   0  0  0  0  0  0  0  0  0  0  0  0
    3.4474   -0.5131   -0.3368 C   0  0  0  0  0  0  0  0  0  0  0  0
    3.5964   -0.4374    1.0445 C   0  0  0  0  0  0  0  0  0  0  0  0
   -0.1334   -0.3743    0.1960 S   0  0  0  0  0  0  0  0  0  0  0  0
    0.0276   -0.3823    1.6309 O   0  0  0  0  0  0  0  0  0  0  0  0
   -1.0568   -1.2399   -0.4931 O   0  0  0  0  0  0  0  0  0  0  0  0
   -0.5150    1.1219   -0.2338 O   0  0  0  0  0  0  0  0  0  0  0  0
    1.3211   -0.5271   -0.4637 O   0  0  0  0  0  0  0  0  0  0  0  0
   -0.4295   -0.3932    1.4901 C   0  0  1  0  0  0  0  0  0  0  0  0
    0.8358   -0.0657    0.7251 C   0  0  0  0  0  0  0  0  0  0  0  0
   -1.7864   -0.4314    0.7065 C   0  0  1  0  0  0  0  0  0  0  0  0
   -2.3488    0.8822    0.3143 N   0  0  0  0  0  0  0  0  0  0  0  0
   -0.2353   -1.6529    2.1585 O   0  0  0  0  0  0  0  0  0  0  0  0
    1.4507    1.1892    0.8667 C   0  0  0  0  0  0  0  0  0  0  0  0
    1.4512   -1.0178   -0.1040 C   0  0  0  0  0  0  0  0  0  0  0  0
   -1.7487    1.4909   -0.8625 C   0  0  0  0  0  0  0  0  0  0  0  0
   -1.8517   -1.4745   -0.4191 C   0  0  0  0  0  0  0  0  0  0  0  0
    2.6311    1.4901    0.1829 C   0  0  0  0  0  0  0  0  0  0  0  0
    2.6342   -0.7205   -0.7825 C   0  0  0  0  0  0  0  0  0  0  0  0
    3.2220    0.5345   -0.6417 C   0  0  0  0  0  0  0  0  0  0  0  0
    0.0021    0.7535   -1.9180 H   0  0  0  0  0  0  0  0  0  0  0  0
   -1.4380   -0.0113    0.6864 H   0  0  0  0  0  0  0  0  0  0  0  0
   -2.4613    1.5137   -0.9863 H   0  0  0  0  0  0  0  0  0  0  0  0
    0.3612    2.5202    0.0026 H   0  0  0  0  0  0  0  0  0  0  0  0
    0.5531    0.8188    1.8612 H   0  0  0  0  0  0  0  0  0  0  0  0
    2.1546   -0.1781   -2.0191 H   0  0  0  0  0  0  0  0  0  0  0  0
   -3.7250    0.4668    0.7541 H   0  0  0  0  0  0  0  0  0  0  0  0
   -3.9422   -0.9501   -0.2996 H   0  0  0  0  0  0  0  0  0  0  0  0
   -4.6433    0.6017   -0.7482 H   0  0  0  0  0  0  0  0  0  0  0  0
   -1.0823   -1.6366   -1.9088 H   0  0  0  0  0  0  0  0  0  0  0  0
   -0.2753   -1.9828   -0.3691 H   0  0  0  0  0  0  0  0  0  0  0  0
   -2.0199   -2.1487   -0.4948 H   0  0  0  0  0  0  0  0  0  0  0  0
    2.6717    0.1098    2.9088 H   0  0  0  0  0  0  0  0  0  0  0  0
    4.2539   -0.9006   -0.9509 H   0  0  0  0  0  0  0  0  0  0  0  0
    4.5249   -0.7554    1.5140 H   0  0  0  0  0  0  0  0  0  0  0  0
   -1.4816    1.1317   -0.3960 H   0  0  0  0  0  0  0  0  0  0  0  0
    1.8381    0.2699   -0.2403 H   0  0  0  0  0  0  0  0  0  0  0  0
   -0.5427    0.3360    2.3055 H   0  0  0  0  0  0  0  0  0  0  0  0
   -2.5069   -0.8034    1.4531 H   0  0  0  0  0  0  0  0  0  0  0  0
   -3.3434    0.7588    0.1261 H   0  0  0  0  0  0  0  0  0  0  0  0
    0.6637   -1.6179    2.5296 H   0  0  0  0  0  0  0  0  0  0  0  0
    1.0097    1.9473    1.5109 H   0  0  0  0  0  0  0  0  0  0  0  0
    1.0170   -2.0091   -0.2160 H   0  0  0  0  0  0  0  0  0  0  0  0
   -2.2929    2.4095   -1.1039 H   0  0  0  0  0  0  0  0  0  0  0  0
   -0.7111    1.7835   -0.6987 H   0  0  0  0  0  0  0  0  0  0  0  0
   -1.8115    0.8509   -1.7453 H   0  0  0  0  0  0  0  0  0  0  0  0
   -1.1681   -1.2463   -1.2405 H   0  0  0  0  0  0  0  0  0  0  0  0
   -1.6063   -2.4747   -0.0441 H   0  0  0  0  0  0  0  0  0  0  0  0
   -2.8636   -1.5284   -0.8407 H   0  0  0  0  0  0  0  0  0  0  0  0
    3.0891    2.4704    0.2965 H   0  0  0  0  0  0  0  0  0  0  0  0
    3.0982   -1.4714   -1.4179 H   0  0  0  0  0  0  0  0  0  0  0  0
    4.1441    0.7641   -1.1699 H   0  0  0  0  0  0  0  0  0  0  0  0
  2  1  1  0
  3  1  1  0
  4  3  1  0
  1  5  1  0
  6  2  2  0
  7  2  1  0
  8  4  1  0
  3  9  1  0
 10  6  1  0
 11  7  2  0
 12 10  2  0
 12 11  1  0
 14 13  2  0
 15 13  2  0
 16 13  1  0
 17 13  1  0
 19 18  1  0
 20 18  1  0
 21 20  1  0
 18 22  1  0
 23 19  2  0
 24 19  1  0
 25 21  1  0
 20 26  1  0
 27 23  1  0
 28 24  2  0
 29 27  2  0
 29 28  1  0
  1 30  1  6
  3 31  1  1
  4 32  1  0
  5 33  1  0
  6 34  1  0
  7 35  1  0
  8 36  1  0
  8 37  1  0
  8 38  1  0
  9 39  1  0
  9 40  1  0
  9 41  1  0
 10 42  1  0
 11 43  1  0
 12 44  1  0
 16 45  1  0
 17 46  1  0
 18 47  1  1
 20 48  1  1
 21 49  1  0
 22 50  1  0
 23 51  1  0
 24 52  1  0
 25 53  1  0
 25 54  1  0
 25 55  1  0
 26 56  1  0
 26 57  1  0
 26 58  1  0
 27 59  1  0
 28 60  1  0
 29 61  1  0
M  END
$$$$
