
     RDKit          3D

 61 60  0  0  0  0  0  0  0  0999 V2000
    0.0171    0.2384   -1.1005 C   0  0  1  0  0  0  0  0  0  0  0  0
   -1.2235   -0.1642   -0.3197 C   0  0  0  0  0  0  0  0  0  0  0  0
    1.2208    0.7301   -0.2244 C   0  0  1  0  0  0  0  0  0  0  0  0
    1.9095   -0.4099    0.4213 N   0  0  0  0  0  0  0  0  0  0  0  0
    0.4387   -0.8293   -1.9647 O   0  0  0  0  0  0  0  0  0  0  0  0
   -1.2108   -1.2377    0.5835 C   0  0  0  0  0  0  0  0  0  0  0  0
   -2.4283    0.5310   -0.5134 C   0  0  0  0  0  0  0  0  0  0  0  0
    2.9820   -0.0281    1.3219 C   0  0  0  0  0  0  0  0  0  0  0  0
    2.1897    1.5245   -1.1158 C   0  0  0  0  0  0  0  0  0  0  0  0
   -2.3656   -1.6004    1.2796 C   0  0  0  0  0  0  0  0  0  0  0  0
   -3.5832    0.1669    0.1826 C   0  0  0  0  0  0  0  0  0  0  0  0
   -3.5513   -0.8981    1.0793 C   0  0  0  0  0  0  0  0  0  0  0  0
   -0.0556    0.4191    0.1694 S   0  0  0  0  0  0  0  0  0  0  0  0
   -0.5923    1.4357   -0.6989 O   0  0  0  0  0  0  0  0  0  0  0  0
    0.3164    0.6501    1.5420 O   0  0  0  0  0  0  0  0  0  0  0  0
   -1.0891   -0.8070    0.1251 O   0  0  0  0  0  0  0  0  0  0  0  0
    1.2256   -0.2308   -0.5444 O   0  0  0  0  0  0  0  0  0  0  0  0
    0.3630    0.6775   -0.4247 C   0  0  1  0  0  0  0  0  0  0  0  0
   -1.0655    0.1765   -0.2934 C   0  0  0  0  0  0  0  0  0  0  0  0
    1.4459   -0.4156   -0.1238 C   0  0  1  0  0  0  0  0  0  0  0  0
    2.8524   -0.0136   -0.3718 N   0  0  0  0  0  0  0  0  0  0  0  0
    0.5306    1.1996   -1.7497 O   0  0  0  0  0  0  0  0  0  0  0  0
   -1.9043    0.6805    0.7119 C   0  0  0  0  0  0  0  0  0  0  0  0
   -1.5737   -0.7915   -1.1746 C   0  0  0  0  0  0  0  0  0  0  0  0
    3.2676    1.2116    0.2899 C   0  0  0  0  0  0  0  0  0  0  0  0
    1.3047   -0.9837    1.2963 C   0  0  0  0  0  0  0  0  0  0  0  0
   -3.2171    0.2218    0.8359 C   0  0  0  0  0  0  0  0  0  0  0  0
   -2.8863   -1.2480   -1.0490 C   0  0  0  0  0  0  0  0  0  0  0  0
   -3.7069   -0.7421   -0.0433 C   0  0  0  0  0  0  0  0  0  0  0  0
   -0.2674    1.0578   -1.7725 H   0  0  0  0  0  0  0  0  0  0  0  0
    0.8299    1.4041    0.5488 H   0  0  0  0  0  0  0  0  0  0  0  0
    2.2564   -1.0276   -0.3159 H   0  0  0  0  0  0  0  0  0  0  0  0
   -0.2611   -1.5043   -1.9422 H   0  0  0  0  0  0  0  0  0  0  0  0
   -0.2951   -1.7999    0.7559 H   0  0  0  0  0  0  0  0  0  0  0  0
   -2.4790    1.3643   -1.2111 H   0  0  0  0  0  0  0  0  0  0  0  0
    3.8417    0.3879    0.7890 H   0  0  0  0  0  0  0  0  0  0  0  0
    2.6376    0.6925    2.0705 H   0  0  0  0  0  0  0  0  0  0  0  0
    3.3317   -0.9149    1.8600 H   0  0  0  0  0  0  0  0  0  0  0  0
    2.9767    2.0064   -0.5272 H   0  0  0  0  0  0  0  0  0  0  0  0
    1.6603    2.3235   -1.6467 H   0  0  0  0  0  0  0  0  0  0  0  0
    2.6666    0.8831   -1.8651 H   0  0  0  0  0  0  0  0  0  0  0  0
   -2.3360   -2.4310    1.9801 H   0  0  0  0  0  0  0  0  0  0  0  0
   -4.5083    0.7153    0.0243 H   0  0  0  0  0  0  0  0  0  0  0  0
   -4.4491   -1.1805    1.6224 H   0  0  0  0  0  0  0  0  0  0  0  0
   -1.5430   -0.7711   -0.7423 H   0  0  0  0  0  0  0  0  0  0  0  0
    1.7378   -0.6959    0.1492 H   0  0  0  0  0  0  0  0  0  0  0  0
    0.5029    1.5237    0.2583 H   0  0  0  0  0  0  0  0  0  0  0  0
    1.2770   -1.2464   -0.8212 H   0  0  0  0  0  0  0  0  0  0  0  0
    3.4751   -0.7759   -0.1102 H   0  0  0  0  0  0  0  0  0  0  0  0
   -0.3290    1.5511   -2.0347 H   0  0  0  0  0  0  0  0  0  0  0  0
   -1.5415    1.4334    1.4084 H   0  0  0  0  0  0  0  0  0  0  0  0
   -0.9450   -1.1906   -1.9692 H   0  0  0  0  0  0  0  0  0  0  0  0
    3.1595    1.1523    1.3767 H   0  0  0  0  0  0  0  0  0  0  0  0
    4.3262    1.3919    0.0759 H   0  0  0  0  0  0  0  0  0  0  0  0
    2.7199    2.0822   -0.0819 H   0  0  0  0  0  0  0  0  0  0  0  0
    2.0897   -1.7189    1.5071 H   0  0  0  0  0  0  0  0  0  0  0  0
    0.3478   -1.5008    1.4211 H   0  0  0  0  0  0  0  0  0  0  0  0
    1.3632   -0.1968    2.0553 H   0  0  0  0  0  0  0  0  0  0  0  0
   -3.8589    0.6172    1.6191 H   0  0  0  0  0  0  0  0  0  0  0  0
   -3.2682   -1.9975   -1.7374 H   0  0  0  0  0  0  0  0  0  0  0  0
   -4.7293   -1.0979    0.0542 H   0  0  0  0  0  0  0  0  0  0  0  0
  2  1  1  0
  3  1  1  0
  4  3  1  0
  1  5  1  0
  6  2  2  0
  7  2  1  0
  8  4  1  0
  3  9  1  0
 10  6  1  0
 11  7  2  0
 12 10  2  0
 12 11  1  0
 14 13  2  0
 15 13  2  0
 16 13  1  0
 17 13  1  0
 19 18  1  0
 20 18  1  0
 21 20  1  0
 18 22  1  0
 23 19  2  0
 24 19  1  0
 25 21  1  0
 20 26  1  0
 27 23  1  0
 28 24  2  0
 29 27  2  0
 29 28  1  0
  1 30  1  6
  3 31  1  1
  4 32  1  0
  5 33  1  0
  6 34  1  0
  7 35  1  0
  8 36  1  0
  8 37  1  0
  8 38  1  0
  9 39  1  0
  9 40  1  0
  9 41  1  0
 10 42  1  0
 11 43  1  0
 12 44  1  0
 16 45  1  0
 17 46  1  0
 18 47  1  1
 20 48  1  6
 21 49  1  0
 22 50  1  0
 23 51  1  0
 24 52  1  0
 25 53  1  0
 25 54  1  0
 25 55  1  0
 26 56  1  0
 26 57  1  0
 26 58  1  0
 27 59  1  0
 28 60  1  0
 29 61  1  0
M  END
$$$$
