
     RDKit          3D

 61 60  0  0  0  0  0  0  0  0999 V2000
    0.0139    0.6596   -1.1652 C   0  0  1  0  0  0  0  0  0  0  0  0
   -1.1803    0.0809   -0.4248 C   0  0  0  0  0  0  0  0  0  0  0  0
    1.4180    0.3447   -0.5365 C   0  0  1  0  0  0  0  0  0  0  0  0
    1.6902    1.1740    0.6586 N   0  0  0  0  0  0  0  0  0  0  0  0
    0.0044    0.2283   -2.5353 O   0  0  0  0  0  0  0  0  0  0  0  0
   -1.5905    0.6412    0.7958 C   0  0  0  0  0  0  0  0  0  0  0  0
   -1.8965   -1.0192   -0.9222 C   0  0  0  0  0  0  0  0  0  0  0  0
    3.0438    1.0194    1.1766 C   0  0  0  0  0  0  0  0  0  0  0  0
    1.5911   -1.1586   -0.2747 C   0  0  0  0  0  0  0  0  0  0  0  0
   -2.6793    0.1175    1.4973 C   0  0  0  0  0  0  0  0  0  0  0  0
   -2.9858   -1.5428   -0.2219 C   0  0  0  0  0  0  0  0  0  0  0  0
   -3.3775   -0.9743    0.9879 C   0  0  0  0  0  0  0  0  0  0  0  0
   -0.2673   -0.1639    0.3248 S   0  0  0  0  0  0  0  0  0  0  0  0
    0.2433   -0.1981    1.6713 O   0  0  0  0  0  0  0  0  0  0  0  0
   -1.5843   -0.6148   -0.0473 O   0  0  0  0  0  0  0  0  0  0  0  0
    0.8065   -0.9318   -0.5866 O   0  0  0  0  0  0  0  0  0  0  0  0
   -0.1293    1.3349   -0.2302 O   0  0  0  0  0  0  0  0  0  0  0  0
   -0.4786    0.7636    0.6835 C   0  0  1  0  0  0  0  0  0  0  0  0
    1.0130    0.6440    0.4151 C   0  0  0  0  0  0  0  0  0  0  0  0
   -1.3972    0.0518   -0.3688 C   0  0  1  0  0  0  0  0  0  0  0  0
   -1.3972   -1.4149   -0.1705 N   0  0  0  0  0  0  0  0  0  0  0  0
   -0.7939    0.3040    2.0076 O   0  0  0  0  0  0  0  0  0  0  0  0
    1.6688   -0.5962    0.4384 C   0  0  0  0  0  0  0  0  0  0  0  0
    1.7723    1.7960    0.1543 C   0  0  0  0  0  0  0  0  0  0  0  0
   -2.1154   -2.1554   -1.1918 C   0  0  0  0  0  0  0  0  0  0  0  0
   -2.8215    0.6189   -0.2461 C   0  0  0  0  0  0  0  0  0  0  0  0
    3.0418   -0.6840    0.1995 C   0  0  0  0  0  0  0  0  0  0  0  0
    3.1460    1.7076   -0.0834 C   0  0  0  0  0  0  0  0  0  0  0  0
    3.7799    0.4674   -0.0620 C   0  0  0  0  0  0  0  0  0  0  0  0
   -0.1254    1.7479   -1.2103 H   0  0  0  0  0  0  0  0  0  0  0  0
    2.1611    0.6176   -1.2981 H   0  0  0  0  0  0  0  0  0  0  0  0
    1.5425    2.1548    0.4243 H   0  0  0  0  0  0  0  0  0  0  0  0
    0.6310    0.7961   -3.0129 H   0  0  0  0  0  0  0  0  0  0  0  0
   -1.0532    1.4867    1.2173 H   0  0  0  0  0  0  0  0  0  0  0  0
   -1.6065   -1.4795   -1.8641 H   0  0  0  0  0  0  0  0  0  0  0  0
    3.2083    0.0204    1.5919 H   0  0  0  0  0  0  0  0  0  0  0  0
    3.2004    1.7313    1.9946 H   0  0  0  0  0  0  0  0  0  0  0  0
    3.7954    1.2229    0.4068 H   0  0  0  0  0  0  0  0  0  0  0  0
    0.9971   -1.4917    0.5836 H   0  0  0  0  0  0  0  0  0  0  0  0
    2.6376   -1.4121   -0.0755 H   0  0  0  0  0  0  0  0  0  0  0  0
    1.2861   -1.7460   -1.1474 H   0  0  0  0  0  0  0  0  0  0  0  0
   -2.9769    0.5598    2.4442 H   0  0  0  0  0  0  0  0  0  0  0  0
   -3.5262   -2.3952   -0.6237 H   0  0  0  0  0  0  0  0  0  0  0  0
   -4.2229   -1.3839    1.5337 H   0  0  0  0  0  0  0  0  0  0  0  0
    1.6758   -0.8451   -0.1439 H   0  0  0  0  0  0  0  0  0  0  0  0
   -0.7447    1.4188   -0.9880 H   0  0  0  0  0  0  0  0  0  0  0  0
   -0.7306    1.8314    0.6810 H   0  0  0  0  0  0  0  0  0  0  0  0
   -1.0142    0.2850   -1.3707 H   0  0  0  0  0  0  0  0  0  0  0  0
   -1.7779   -1.6094    0.7582 H   0  0  0  0  0  0  0  0  0  0  0  0
    0.0509    0.1724    2.4703 H   0  0  0  0  0  0  0  0  0  0  0  0
    1.1111   -1.5091    0.6383 H   0  0  0  0  0  0  0  0  0  0  0  0
    1.2995    2.7760    0.1344 H   0  0  0  0  0  0  0  0  0  0  0  0
   -1.7364   -1.9225   -2.1917 H   0  0  0  0  0  0  0  0  0  0  0  0
   -3.1921   -1.9703   -1.1633 H   0  0  0  0  0  0  0  0  0  0  0  0
   -1.9656   -3.2278   -1.0290 H   0  0  0  0  0  0  0  0  0  0  0  0
   -3.2815    0.3517    0.7121 H   0  0  0  0  0  0  0  0  0  0  0  0
   -2.8104    1.7122   -0.3188 H   0  0  0  0  0  0  0  0  0  0  0  0
   -3.4712    0.2571   -1.0496 H   0  0  0  0  0  0  0  0  0  0  0  0
    3.5318   -1.6541    0.2151 H   0  0  0  0  0  0  0  0  0  0  0  0
    3.7209    2.6074   -0.2863 H   0  0  0  0  0  0  0  0  0  0  0  0
    4.8479    0.3973   -0.2496 H   0  0  0  0  0  0  0  0  0  0  0  0
  2  1  1  0
  3  1  1  0
  4  3  1  0
  1  5  1  0
  6  2  2  0
  7  2  1  0
  8  4  1  0
  3  9  1  0
 10  6  1  0
 11  7  2  0
 12 10  2  0
 12 11  1  0
 14 13  2  0
 15 13  2  0
 16 13  1  0
 17 13  1  0
 19 18  1  0
 20 18  1  0
 21 20  1  0
 18 22  1  0
 23 19  2  0
 24 19  1  0
 25 21  1  0
 20 26  1  0
 27 23  1  0
 28 24  2  0
 29 27  2  0
 29 28  1  0
  1 30  1  6
  3 31  1  6
  4 32  1  0
  5 33  1  0
  6 34  1  0
  7 35  1  0
  8 36  1  0
  8 37  1  0
  8 38  1  0
  9 39  1  0
  9 40  1  0
  9 41  1  0
 10 42  1  0
 11 43  1  0
 12 44  1  0
 16 45  1  0
 17 46  1  0
 18 47  1  1
 20 48  1  6
 21 49  1  0
 22 50  1  0
 23 51  1  0
 24 52  1  0
 25 53  1  0
 25 54  1  0
 25 55  1  0
 26 56  1  0
 26 57  1  0
 26 58  1  0
 27 59  1  0
 28 60  1  0
 29 61  1  0
M  END
$$$$
