
     RDKit          3D

 61 60  0  0  0  0  0  0  0  0999 V2000
   -0.1869    1.0892   -0.3062 C   0  0  1  0  0  0  0  0  0  0  0  0
    1.1970    0.4675   -0.2201 C   0  0  0  0  0  0  0  0  0  0  0  0
   -1.4043    0.1371   -0.5639 C   0  0  1  0  0  0  0  0  0  0  0  0
   -1.7801   -0.5819    0.6798 N   0  0  0  0  0  0  0  0  0  0  0  0
   -0.4149    1.8164    0.9100 O   0  0  0  0  0  0  0  0  0  0  0  0
    1.4250   -0.9069   -0.0680 C   0  0  0  0  0  0  0  0  0  0  0  0
    2.3147    1.3209   -0.2740 C   0  0  0  0  0  0  0  0  0  0  0  0
   -2.5978   -1.7597    0.4237 C   0  0  0  0  0  0  0  0  0  0  0  0
   -2.5957    0.9683   -1.0676 C   0  0  0  0  0  0  0  0  0  0  0  0
    2.7259   -1.4134    0.0087 C   0  0  0  0  0  0  0  0  0  0  0  0
    3.6139    0.8157   -0.1973 C   0  0  0  0  0  0  0  0  0  0  0  0
    3.8192   -0.5536   -0.0587 C   0  0  0  0  0  0  0  0  0  0  0  0
   -0.0711    0.4410    0.0876 S   0  0  0  0  0  0  0  0  0  0  0  0
    0.2449    0.9294    1.4056 O   0  0  0  0  0  0  0  0  0  0  0  0
   -0.5964    1.2664   -0.9699 O   0  0  0  0  0  0  0  0  0  0  0  0
    1.2493   -0.2928   -0.4523 O   0  0  0  0  0  0  0  0  0  0  0  0
   -1.0760   -0.8006    0.2357 O   0  0  0  0  0  0  0  0  0  0  0  0
    0.3618    0.7622   -0.1341 C   0  0  1  0  0  0  0  0  0  0  0  0
   -1.0631    0.2670   -0.2897 C   0  0  0  0  0  0  0  0  0  0  0  0
    1.4459   -0.3489   -0.3089 C   0  0  1  0  0  0  0  0  0  0  0  0
    2.8207    0.2029   -0.4245 N   0  0  0  0  0  0  0  0  0  0  0  0
    0.5988    1.8042   -1.0974 O   0  0  0  0  0  0  0  0  0  0  0  0
   -1.9378    0.2729    0.8071 C   0  0  0  0  0  0  0  0  0  0  0  0
   -1.5346   -0.2021   -1.5262 C   0  0  0  0  0  0  0  0  0  0  0  0
    3.3533    0.7670    0.8081 C   0  0  0  0  0  0  0  0  0  0  0  0
    1.3419   -1.4415    0.7592 C   0  0  0  0  0  0  0  0  0  0  0  0
   -3.2505   -0.1822    0.6702 C   0  0  0  0  0  0  0  0  0  0  0  0
   -2.8474   -0.6560   -1.6608 C   0  0  0  0  0  0  0  0  0  0  0  0
   -3.7046   -0.6461   -0.5627 C   0  0  0  0  0  0  0  0  0  0  0  0
   -0.1563    1.8261   -1.1193 H   0  0  0  0  0  0  0  0  0  0  0  0
   -1.1276   -0.5750   -1.3518 H   0  0  0  0  0  0  0  0  0  0  0  0
   -2.2944    0.0614    1.2847 H   0  0  0  0  0  0  0  0  0  0  0  0
   -0.3447    1.1351    1.6050 H   0  0  0  0  0  0  0  0  0  0  0  0
    0.5985   -1.6089    0.0035 H   0  0  0  0  0  0  0  0  0  0  0  0
    2.1695    2.3960   -0.3685 H   0  0  0  0  0  0  0  0  0  0  0  0
   -3.5647   -1.5059   -0.0193 H   0  0  0  0  0  0  0  0  0  0  0  0
   -2.0779   -2.4675   -0.2297 H   0  0  0  0  0  0  0  0  0  0  0  0
   -2.7934   -2.2737    1.3701 H   0  0  0  0  0  0  0  0  0  0  0  0
   -2.3224    1.5218   -1.9728 H   0  0  0  0  0  0  0  0  0  0  0  0
   -2.9273    1.6959   -0.3185 H   0  0  0  0  0  0  0  0  0  0  0  0
   -3.4499    0.3348   -1.3263 H   0  0  0  0  0  0  0  0  0  0  0  0
    2.8831   -2.4825    0.1274 H   0  0  0  0  0  0  0  0  0  0  0  0
    4.4626    1.4929   -0.2404 H   0  0  0  0  0  0  0  0  0  0  0  0
    4.8289   -0.9499    0.0043 H   0  0  0  0  0  0  0  0  0  0  0  0
    1.7465   -0.6061    0.3315 H   0  0  0  0  0  0  0  0  0  0  0  0
   -1.4973   -0.9373   -0.6382 H   0  0  0  0  0  0  0  0  0  0  0  0
    0.4737    1.2313    0.8503 H   0  0  0  0  0  0  0  0  0  0  0  0
    1.2731   -0.8346   -1.2780 H   0  0  0  0  0  0  0  0  0  0  0  0
    2.7558    0.9618   -1.1123 H   0  0  0  0  0  0  0  0  0  0  0  0
   -0.2542    2.2459   -1.2525 H   0  0  0  0  0  0  0  0  0  0  0  0
   -1.6032    0.6290    1.7793 H   0  0  0  0  0  0  0  0  0  0  0  0
   -0.8774   -0.2140   -2.3943 H   0  0  0  0  0  0  0  0  0  0  0  0
    4.3398    1.1963    0.6052 H   0  0  0  0  0  0  0  0  0  0  0  0
    3.4937    0.0025    1.5775 H   0  0  0  0  0  0  0  0  0  0  0  0
    2.7241    1.5688    1.2044 H   0  0  0  0  0  0  0  0  0  0  0  0
    1.3848   -1.0276    1.7720 H   0  0  0  0  0  0  0  0  0  0  0  0
    2.1521   -2.1716    0.6517 H   0  0  0  0  0  0  0  0  0  0  0  0
    0.3998   -1.9918    0.6644 H   0  0  0  0  0  0  0  0  0  0  0  0
   -3.9198   -0.1761    1.5270 H   0  0  0  0  0  0  0  0  0  0  0  0
   -3.2005   -1.0182   -2.6230 H   0  0  0  0  0  0  0  0  0  0  0  0
   -4.7266   -1.0012   -0.6676 H   0  0  0  0  0  0  0  0  0  0  0  0
  2  1  1  0
  3  1  1  0
  4  3  1  0
  1  5  1  0
  6  2  2  0
  7  2  1  0
  8  4  1  0
  3  9  1  0
 10  6  1  0
 11  7  2  0
 12 10  2  0
 12 11  1  0
 14 13  2  0
 15 13  2  0
 16 13  1  0
 17 13  1  0
 19 18  1  0
 20 18  1  0
 21 20  1  0
 18 22  1  0
 23 19  2  0
 24 19  1  0
 25 21  1  0
 20 26  1  0
 27 23  1  0
 28 24  2  0
 29 27  2  0
 29 28  1  0
  1 30  1  6
  3 31  1  6
  4 32  1  0
  5 33  1  0
  6 34  1  0
  7 35  1  0
  8 36  1  0
  8 37  1  0
  8 38  1  0
  9 39  1  0
  9 40  1  0
  9 41  1  0
 10 42  1  0
 11 43  1  0
 12 44  1  0
 16 45  1  0
 17 46  1  0
 18 47  1  1
 20 48  1  6
 21 49  1  0
 22 50  1  0
 23 51  1  0
 24 52  1  0
 25 53  1  0
 25 54  1  0
 25 55  1  0
 26 56  1  0
 26 57  1  0
 26 58  1  0
 27 59  1  0
 28 60  1  0
 29 61  1  0
M  END
$$$$
