
     RDKit          3D

 61 60  0  0  0  0  0  0  0  0999 V2000
   -0.3233    0.7319   -0.6450 C   0  0  1  0  0  0  0  0  0  0  0  0
    1.0981    0.3044   -0.3153 C   0  0  0  0  0  0  0  0  0  0  0  0
   -1.3936   -0.4145   -0.7199 C   0  0  1  0  0  0  0  0  0  0  0  0
   -1.7436   -1.1473    0.5217 N   0  0  0  0  0  0  0  0  0  0  0  0
   -0.7369    1.7987    0.2141 O   0  0  0  0  0  0  0  0  0  0  0  0
    2.1540    0.7066   -1.1516 C   0  0  0  0  0  0  0  0  0  0  0  0
    1.4082   -0.4425    0.8296 C   0  0  0  0  0  0  0  0  0  0  0  0
   -2.3170   -0.3303    1.5825 C   0  0  0  0  0  0  0  0  0  0  0  0
   -2.6649    0.0946   -1.4200 C   0  0  0  0  0  0  0  0  0  0  0  0
    3.4740    0.3543   -0.8615 C   0  0  0  0  0  0  0  0  0  0  0  0
    2.7284   -0.7956    1.1194 C   0  0  0  0  0  0  0  0  0  0  0  0
    3.7607   -0.3989    0.2735 C   0  0  0  0  0  0  0  0  0  0  0  0
    0.0126    0.4532   -0.0422 S   0  0  0  0  0  0  0  0  0  0  0  0
    0.4732    1.0053   -1.2907 O   0  0  0  0  0  0  0  0  0  0  0  0
   -0.4110    1.2505    1.0805 O   0  0  0  0  0  0  0  0  0  0  0  0
    1.1557   -0.5558    0.4567 O   0  0  0  0  0  0  0  0  0  0  0  0
   -1.1862   -0.5668   -0.3520 O   0  0  0  0  0  0  0  0  0  0  0  0
   -0.2408   -1.0042   -0.6085 C   0  0  1  0  0  0  0  0  0  0  0  0
    1.1631   -0.5095   -0.2994 C   0  0  0  0  0  0  0  0  0  0  0  0
   -1.3961   -0.2201    0.1056 C   0  0  1  0  0  0  0  0  0  0  0  0
   -1.6496    1.0777   -0.5599 N   0  0  0  0  0  0  0  0  0  0  0  0
   -0.4653   -1.0290   -2.0274 O   0  0  0  0  0  0  0  0  0  0  0  0
    2.1010   -1.3843    0.2734 C   0  0  0  0  0  0  0  0  0  0  0  0
    1.5690    0.8000   -0.5972 C   0  0  0  0  0  0  0  0  0  0  0  0
   -2.6420    1.9048    0.1022 C   0  0  0  0  0  0  0  0  0  0  0  0
   -2.6617   -1.0938    0.1038 C   0  0  0  0  0  0  0  0  0  0  0  0
    3.4012   -0.9567    0.5512 C   0  0  0  0  0  0  0  0  0  0  0  0
    2.8691    1.2269   -0.3187 C   0  0  0  0  0  0  0  0  0  0  0  0
    3.7845    0.3491    0.2560 C   0  0  0  0  0  0  0  0  0  0  0  0
   -0.2935    1.1787   -1.6476 H   0  0  0  0  0  0  0  0  0  0  0  0
   -0.9677   -1.1798   -1.3836 H   0  0  0  0  0  0  0  0  0  0  0  0
   -2.4091   -1.8828    0.2844 H   0  0  0  0  0  0  0  0  0  0  0  0
    0.0166    2.0061    0.7931 H   0  0  0  0  0  0  0  0  0  0  0  0
    1.9564    1.3029   -2.0404 H   0  0  0  0  0  0  0  0  0  0  0  0
    0.6242   -0.7619    1.5115 H   0  0  0  0  0  0  0  0  0  0  0  0
   -2.6169   -0.9871    2.4063 H   0  0  0  0  0  0  0  0  0  0  0  0
   -3.2112    0.2119    1.2636 H   0  0  0  0  0  0  0  0  0  0  0  0
   -1.5906    0.3702    2.0006 H   0  0  0  0  0  0  0  0  0  0  0  0
   -3.1261    0.9301   -0.8839 H   0  0  0  0  0  0  0  0  0  0  0  0
   -3.4093   -0.7036   -1.5176 H   0  0  0  0  0  0  0  0  0  0  0  0
   -2.4298    0.4414   -2.4325 H   0  0  0  0  0  0  0  0  0  0  0  0
    4.2781    0.6697   -1.5213 H   0  0  0  0  0  0  0  0  0  0  0  0
    2.9477   -1.3821    2.0080 H   0  0  0  0  0  0  0  0  0  0  0  0
    4.7869   -0.6751    0.5001 H   0  0  0  0  0  0  0  0  0  0  0  0
    1.6249   -0.8778   -0.3408 H   0  0  0  0  0  0  0  0  0  0  0  0
   -1.6691   -0.7086    0.4884 H   0  0  0  0  0  0  0  0  0  0  0  0
   -0.2990   -2.0519   -0.2879 H   0  0  0  0  0  0  0  0  0  0  0  0
   -1.0990   -0.0437    1.1475 H   0  0  0  0  0  0  0  0  0  0  0  0
   -1.9211    0.8887   -1.5272 H   0  0  0  0  0  0  0  0  0  0  0  0
    0.3771   -0.7915   -2.4514 H   0  0  0  0  0  0  0  0  0  0  0  0
    1.8266   -2.4106    0.5089 H   0  0  0  0  0  0  0  0  0  0  0  0
    0.8717    1.5036   -1.0476 H   0  0  0  0  0  0  0  0  0  0  0  0
   -3.6500    1.4889    0.0187 H   0  0  0  0  0  0  0  0  0  0  0  0
   -2.6583    2.8925   -0.3694 H   0  0  0  0  0  0  0  0  0  0  0  0
   -2.3981    2.0523    1.1590 H   0  0  0  0  0  0  0  0  0  0  0  0
   -3.4592   -0.6505    0.7083 H   0  0  0  0  0  0  0  0  0  0  0  0
   -3.0453   -1.2462   -0.9110 H   0  0  0  0  0  0  0  0  0  0  0  0
   -2.4520   -2.0793    0.5345 H   0  0  0  0  0  0  0  0  0  0  0  0
    4.1149   -1.6440    0.9979 H   0  0  0  0  0  0  0  0  0  0  0  0
    3.1639    2.2474   -0.5497 H   0  0  0  0  0  0  0  0  0  0  0  0
    4.7955    0.6829    0.4735 H   0  0  0  0  0  0  0  0  0  0  0  0
  2  1  1  0
  3  1  1  0
  4  3  1  0
  1  5  1  0
  6  2  2  0
  7  2  1  0
  8  4  1  0
  3  9  1  0
 10  6  1  0
 11  7  2  0
 12 10  2  0
 12 11  1  0
 14 13  2  0
 15 13  2  0
 16 13  1  0
 17 13  1  0
 19 18  1  0
 20 18  1  0
 21 20  1  0
 18 22  1  0
 23 19  2  0
 24 19  1  0
 25 21  1  0
 20 26  1  0
 27 23  1  0
 28 24  2  0
 29 27  2  0
 29 28  1  0
  1 30  1  6
  3 31  1  6
  4 32  1  0
  5 33  1  0
  6 34  1  0
  7 35  1  0
  8 36  1  0
  8 37  1  0
  8 38  1  0
  9 39  1  0
  9 40  1  0
  9 41  1  0
 10 42  1  0
 11 43  1  0
 12 44  1  0
 16 45  1  0
 17 46  1  0
 18 47  1  1
 20 48  1  1
 21 49  1  0
 22 50  1  0
 23 51  1  0
 24 52  1  0
 25 53  1  0
 25 54  1  0
 25 55  1  0
 26 56  1  0
 26 57  1  0
 26 58  1  0
 27 59  1  0
 28 60  1  0
 29 61  1  0
M  END
$$$$
