
     RDKit          3D

 71 70  0  0  0  0  0  0  0  0999 V2000
   -1.7439   -0.1447    0.4560 C   0  0  0  0  0  0  0  0  0  0  0  0
   -2.7942   -0.9925    0.0620 C   0  0  0  0  0  0  0  0  0  0  0  0
   -2.0224    1.2248    0.6054 C   0  0  0  0  0  0  0  0  0  0  0  0
   -4.0652   -0.4764   -0.1931 C   0  0  0  0  0  0  0  0  0  0  0  0
   -3.2989    1.7215    0.3469 C   0  0  0  0  0  0  0  0  0  0  0  0
   -4.3273    0.8802   -0.0582 C   0  0  0  0  0  0  0  0  0  0  0  0
    2.0833   -0.6108    0.4278 N   0  0  0  0  0  0  0  0  0  0  0  0
   -0.3693   -0.6972    0.7840 C   0  0  2  0  0  0  0  0  0  0  0  0
    0.8097    0.0994    0.1642 C   0  0  0  0  0  0  0  0  0  0  0  0
   -3.5048    3.0604    0.5162 O   0  0  0  0  0  0  0  0  0  0  0  0
   -5.0922   -1.2883   -0.5779 O   0  0  0  0  0  0  0  0  0  0  0  0
   -0.2492   -2.0594    0.3436 O   0  0  0  0  0  0  0  0  0  0  0  0
    3.2586    0.1412   -0.0441 C   0  0  0  0  0  0  0  0  0  0  0  0
    3.3207    0.2352   -1.5695 C   0  0  0  0  0  0  0  0  0  0  0  0
    4.5145   -0.5661    0.4761 C   0  0  0  0  0  0  0  0  0  0  0  0
   -0.0694   -0.3803    0.2012 S   0  0  0  0  0  0  0  0  0  0  0  0
    0.4869   -0.5302    1.5220 O   0  0  0  0  0  0  0  0  0  0  0  0
   -1.0177   -1.2981   -0.3784 O   0  0  0  0  0  0  0  0  0  0  0  0
   -0.7439    1.0725    0.1161 O   0  0  0  0  0  0  0  0  0  0  0  0
    1.1672   -0.2101   -0.8066 O   0  0  0  0  0  0  0  0  0  0  0  0
    1.5368   -0.0379   -0.7299 C   0  0  0  0  0  0  0  0  0  0  0  0
    2.8050   -0.6503   -0.7415 C   0  0  0  0  0  0  0  0  0  0  0  0
    1.3662    1.1026    0.0704 C   0  0  0  0  0  0  0  0  0  0  0  0
    3.8430   -0.1526    0.0443 C   0  0  0  0  0  0  0  0  0  0  0  0
    2.4166    1.5833    0.8518 C   0  0  0  0  0  0  0  0  0  0  0  0
    3.6584    0.9626    0.8480 C   0  0  0  0  0  0  0  0  0  0  0  0
   -1.4590   -0.8958   -0.0298 N   0  0  0  0  0  0  0  0  0  0  0  0
    0.4362   -0.5912   -1.6208 C   0  0  2  0  0  0  0  0  0  0  0  0
   -1.0307   -0.2172   -1.2713 C   0  0  0  0  0  0  0  0  0  0  0  0
    2.1783    2.6883    1.6169 O   0  0  0  0  0  0  0  0  0  0  0  0
    5.0723   -0.7427    0.0478 O   0  0  0  0  0  0  0  0  0  0  0  0
    0.5242   -2.0256   -1.6248 O   0  0  0  0  0  0  0  0  0  0  0  0
   -2.8184   -0.5639    0.4244 C   0  0  0  0  0  0  0  0  0  0  0  0
   -2.9301    0.8721    0.9425 C   0  0  0  0  0  0  0  0  0  0  0  0
   -3.8932   -0.8574   -0.6222 C   0  0  0  0  0  0  0  0  0  0  0  0
   -2.6085   -2.0586   -0.0441 H   0  0  0  0  0  0  0  0  0  0  0  0
   -1.2580    1.9208    0.9397 H   0  0  0  0  0  0  0  0  0  0  0  0
   -5.3231    1.2553   -0.2675 H   0  0  0  0  0  0  0  0  0  0  0  0
    2.1735   -0.7435    1.4387 H   0  0  0  0  0  0  0  0  0  0  0  0
   -0.2670   -0.7123    1.8764 H   0  0  0  0  0  0  0  0  0  0  0  0
    0.8499    1.1134    0.5777 H   0  0  0  0  0  0  0  0  0  0  0  0
    0.6492    0.1711   -0.9180 H   0  0  0  0  0  0  0  0  0  0  0  0
   -4.4626    3.2188    0.5141 H   0  0  0  0  0  0  0  0  0  0  0  0
   -4.7852   -2.2104   -0.5209 H   0  0  0  0  0  0  0  0  0  0  0  0
    0.7159   -2.1998    0.2512 H   0  0  0  0  0  0  0  0  0  0  0  0
    3.2435    1.1522    0.3840 H   0  0  0  0  0  0  0  0  0  0  0  0
    2.5049    0.8461   -1.9679 H   0  0  0  0  0  0  0  0  0  0  0  0
    3.2661   -0.7560   -2.0356 H   0  0  0  0  0  0  0  0  0  0  0  0
    4.2590    0.7038   -1.8885 H   0  0  0  0  0  0  0  0  0  0  0  0
    4.6099   -1.5756    0.0557 H   0  0  0  0  0  0  0  0  0  0  0  0
    5.4147    0.0005    0.2067 H   0  0  0  0  0  0  0  0  0  0  0  0
    4.4984   -0.6531    1.5698 H   0  0  0  0  0  0  0  0  0  0  0  0
   -1.6365    0.9577   -0.2733 H   0  0  0  0  0  0  0  0  0  0  0  0
    1.8134    0.3885   -0.3810 H   0  0  0  0  0  0  0  0  0  0  0  0
    2.9654   -1.5218   -1.3720 H   0  0  0  0  0  0  0  0  0  0  0  0
    0.4238    1.6413    0.1038 H   0  0  0  0  0  0  0  0  0  0  0  0
    4.4831    1.3301    1.4482 H   0  0  0  0  0  0  0  0  0  0  0  0
   -0.7995   -0.6603    0.7172 H   0  0  0  0  0  0  0  0  0  0  0  0
    0.6427   -0.2511   -2.6419 H   0  0  0  0  0  0  0  0  0  0  0  0
   -1.1486    0.8686   -1.2169 H   0  0  0  0  0  0  0  0  0  0  0  0
   -1.6581   -0.5827   -2.0925 H   0  0  0  0  0  0  0  0  0  0  0  0
    2.9729    2.8683    2.1462 H   0  0  0  0  0  0  0  0  0  0  0  0
    5.0304   -1.5354   -0.5122 H   0  0  0  0  0  0  0  0  0  0  0  0
   -0.1643   -2.3100   -0.9863 H   0  0  0  0  0  0  0  0  0  0  0  0
   -3.0190   -1.2271    1.2756 H   0  0  0  0  0  0  0  0  0  0  0  0
   -2.2056    1.0558    1.7411 H   0  0  0  0  0  0  0  0  0  0  0  0
   -3.9285    1.0474    1.3585 H   0  0  0  0  0  0  0  0  0  0  0  0
   -2.7667    1.6104    0.1500 H   0  0  0  0  0  0  0  0  0  0  0  0
   -3.8406   -0.1688   -1.4730 H   0  0  0  0  0  0  0  0  0  0  0  0
   -3.8028   -1.8820   -1.0008 H   0  0  0  0  0  0  0  0  0  0  0  0
   -4.8903   -0.7571   -0.1800 H   0  0  0  0  0  0  0  0  0  0  0  0
  2  1  2  0
  3  1  1  0
  4  2  1  0
  5  3  2  0
  6  4  2  0
  7  9  1  0
  8  1  1  0
  9  8  1  0
 10  5  1  0
 11  4  1  0
 12  8  1  0
 13  7  1  0
 14 13  1  0
 15 13  1  0
  6  5  1  0
 17 16  2  0
 18 16  2  0
 19 16  1  0
 20 16  1  0
 22 21  2  0
 23 21  1  0
 24 22  1  0
 25 23  2  0
 26 24  2  0
 27 29  1  0
 28 21  1  0
 29 28  1  0
 30 25  1  0
 31 24  1  0
 32 28  1  0
 33 27  1  0
 34 33  1  0
 35 33  1  0
 26 25  1  0
  2 36  1  0
  3 37  1  0
  6 38  1  0
  7 39  1  0
  8 40  1  1
  9 41  1  0
  9 42  1  0
 10 43  1  0
 11 44  1  0
 12 45  1  0
 13 46  1  0
 14 47  1  0
 14 48  1  0
 14 49  1  0
 15 50  1  0
 15 51  1  0
 15 52  1  0
 19 53  1  0
 20 54  1  0
 22 55  1  0
 23 56  1  0
 26 57  1  0
 27 58  1  0
 28 59  1  6
 29 60  1  0
 29 61  1  0
 30 62  1  0
 31 63  1  0
 32 64  1  0
 33 65  1  0
 34 66  1  0
 34 67  1  0
 34 68  1  0
 35 69  1  0
 35 70  1  0
 35 71  1  0
M  END
$$$$
