
     RDKit          3D

 71 70  0  0  0  0  0  0  0  0999 V2000
    1.6189   -0.1117   -0.2311 C   0  0  0  0  0  0  0  0  0  0  0  0
    2.6869   -1.0109   -0.4012 C   0  0  0  0  0  0  0  0  0  0  0  0
    1.9110    1.2455   -0.0290 C   0  0  0  0  0  0  0  0  0  0  0  0
    4.0043   -0.5488   -0.3880 C   0  0  0  0  0  0  0  0  0  0  0  0
    3.2346    1.6851   -0.0256 C   0  0  0  0  0  0  0  0  0  0  0  0
    4.2866    0.7970   -0.2042 C   0  0  0  0  0  0  0  0  0  0  0  0
   -2.1972   -0.3390   -1.0157 N   0  0  0  0  0  0  0  0  0  0  0  0
    0.1998   -0.6527   -0.2019 C   0  0  2  0  0  0  0  0  0  0  0  0
   -0.8744    0.2885   -0.8216 C   0  0  0  0  0  0  0  0  0  0  0  0
    3.4602    3.0182    0.1611 O   0  0  0  0  0  0  0  0  0  0  0  0
    5.0583   -1.4015   -0.5444 O   0  0  0  0  0  0  0  0  0  0  0  0
   -0.1380   -0.9780    1.1480 O   0  0  0  0  0  0  0  0  0  0  0  0
   -3.0645   -0.2226    0.1619 C   0  0  0  0  0  0  0  0  0  0  0  0
   -3.9564    1.0101    0.0046 C   0  0  0  0  0  0  0  0  0  0  0  0
   -3.9252   -1.4822    0.2924 C   0  0  0  0  0  0  0  0  0  0  0  0
   -0.2092   -0.3750   -0.1078 S   0  0  0  0  0  0  0  0  0  0  0  0
   -0.4346   -0.6555   -1.5039 O   0  0  0  0  0  0  0  0  0  0  0  0
   -0.6179   -1.2508    0.9623 O   0  0  0  0  0  0  0  0  0  0  0  0
    1.3608   -0.0862    0.0472 O   0  0  0  0  0  0  0  0  0  0  0  0
   -0.8263    1.0667    0.2306 O   0  0  0  0  0  0  0  0  0  0  0  0
   -1.7504   -0.2474    0.3636 C   0  0  0  0  0  0  0  0  0  0  0  0
   -2.1840    1.0097    0.8177 C   0  0  0  0  0  0  0  0  0  0  0  0
   -2.6249   -1.0126   -0.4268 C   0  0  0  0  0  0  0  0  0  0  0  0
   -3.4534    1.4786    0.4909 C   0  0  0  0  0  0  0  0  0  0  0  0
   -3.8953   -0.5261   -0.7376 C   0  0  0  0  0  0  0  0  0  0  0  0
   -4.3189    0.7178   -0.2851 C   0  0  0  0  0  0  0  0  0  0  0  0
    2.0404   -0.6881    0.0395 N   0  0  0  0  0  0  0  0  0  0  0  0
   -0.3626   -0.7349    0.7261 C   0  0  2  0  0  0  0  0  0  0  0  0
    0.7424    0.0202   -0.0558 C   0  0  0  0  0  0  0  0  0  0  0  0
   -4.7637   -1.2558   -1.4991 O   0  0  0  0  0  0  0  0  0  0  0  0
   -3.8126    2.7106    0.9585 O   0  0  0  0  0  0  0  0  0  0  0  0
   -0.2329   -2.1425    0.4922 O   0  0  0  0  0  0  0  0  0  0  0  0
    3.1683    0.2019   -0.2771 C   0  0  0  0  0  0  0  0  0  0  0  0
    4.3331   -0.6325   -0.8138 C   0  0  0  0  0  0  0  0  0  0  0  0
    3.6052    0.9586    0.9772 C   0  0  0  0  0  0  0  0  0  0  0  0
    2.4808   -2.0720   -0.5253 H   0  0  0  0  0  0  0  0  0  0  0  0
    1.1242    1.9784    0.1321 H   0  0  0  0  0  0  0  0  0  0  0  0
    5.3196    1.1284   -0.1914 H   0  0  0  0  0  0  0  0  0  0  0  0
   -2.0719   -1.3200   -1.2758 H   0  0  0  0  0  0  0  0  0  0  0  0
    0.1798   -1.5934   -0.7683 H   0  0  0  0  0  0  0  0  0  0  0  0
   -0.5251    0.6062   -1.8133 H   0  0  0  0  0  0  0  0  0  0  0  0
   -0.9857    1.2011   -0.2249 H   0  0  0  0  0  0  0  0  0  0  0  0
    4.4127    3.1870    0.0328 H   0  0  0  0  0  0  0  0  0  0  0  0
    4.7159   -2.2858   -0.7577 H   0  0  0  0  0  0  0  0  0  0  0  0
    0.5242   -0.5696    1.7335 H   0  0  0  0  0  0  0  0  0  0  0  0
   -2.4846   -0.1232    1.0876 H   0  0  0  0  0  0  0  0  0  0  0  0
   -4.5853    1.1413    0.8897 H   0  0  0  0  0  0  0  0  0  0  0  0
   -4.6184    0.9216   -0.8670 H   0  0  0  0  0  0  0  0  0  0  0  0
   -3.3605    1.9234   -0.1136 H   0  0  0  0  0  0  0  0  0  0  0  0
   -3.2940   -2.3639    0.4634 H   0  0  0  0  0  0  0  0  0  0  0  0
   -4.6134   -1.3974    1.1406 H   0  0  0  0  0  0  0  0  0  0  0  0
   -4.5236   -1.6593   -0.6093 H   0  0  0  0  0  0  0  0  0  0  0  0
    1.6883    0.2054   -0.8285 H   0  0  0  0  0  0  0  0  0  0  0  0
   -0.9610    1.0953    1.2001 H   0  0  0  0  0  0  0  0  0  0  0  0
   -1.5401    1.6321    1.4341 H   0  0  0  0  0  0  0  0  0  0  0  0
   -2.3069   -1.9895   -0.7865 H   0  0  0  0  0  0  0  0  0  0  0  0
   -5.3149    1.0652   -0.5407 H   0  0  0  0  0  0  0  0  0  0  0  0
    2.0146   -1.4385   -0.6540 H   0  0  0  0  0  0  0  0  0  0  0  0
   -0.2129   -0.5898    1.8033 H   0  0  0  0  0  0  0  0  0  0  0  0
    0.4727    0.0906   -1.1178 H   0  0  0  0  0  0  0  0  0  0  0  0
    0.8089    1.0449    0.3295 H   0  0  0  0  0  0  0  0  0  0  0  0
   -4.3463   -2.1093   -1.7070 H   0  0  0  0  0  0  0  0  0  0  0  0
   -4.7115    2.9027    0.6477 H   0  0  0  0  0  0  0  0  0  0  0  0
    0.6866   -2.3328    0.7629 H   0  0  0  0  0  0  0  0  0  0  0  0
    2.8887    0.9180   -1.0579 H   0  0  0  0  0  0  0  0  0  0  0  0
    5.2011    0.0042   -1.0177 H   0  0  0  0  0  0  0  0  0  0  0  0
    4.6435   -1.4054   -0.1029 H   0  0  0  0  0  0  0  0  0  0  0  0
    4.0577   -1.1255   -1.7517 H   0  0  0  0  0  0  0  0  0  0  0  0
    2.8000    1.5898    1.3681 H   0  0  0  0  0  0  0  0  0  0  0  0
    4.4554    1.6155    0.7555 H   0  0  0  0  0  0  0  0  0  0  0  0
    3.9126    0.2702    1.7739 H   0  0  0  0  0  0  0  0  0  0  0  0
  2  1  2  0
  3  1  1  0
  4  2  1  0
  5  3  2  0
  6  4  2  0
  7  9  1  0
  8  1  1  0
  9  8  1  0
 10  5  1  0
 11  4  1  0
 12  8  1  0
 13  7  1  0
 14 13  1  0
 15 13  1  0
  6  5  1  0
 17 16  2  0
 18 16  2  0
 19 16  1  0
 20 16  1  0
 22 21  2  0
 23 21  1  0
 24 22  1  0
 25 23  2  0
 26 24  2  0
 27 29  1  0
 28 21  1  0
 29 28  1  0
 30 25  1  0
 31 24  1  0
 32 28  1  0
 33 27  1  0
 34 33  1  0
 35 33  1  0
 26 25  1  0
  2 36  1  0
  3 37  1  0
  6 38  1  0
  7 39  1  0
  8 40  1  6
  9 41  1  0
  9 42  1  0
 10 43  1  0
 11 44  1  0
 12 45  1  0
 13 46  1  0
 14 47  1  0
 14 48  1  0
 14 49  1  0
 15 50  1  0
 15 51  1  0
 15 52  1  0
 19 53  1  0
 20 54  1  0
 22 55  1  0
 23 56  1  0
 26 57  1  0
 27 58  1  0
 28 59  1  1
 29 60  1  0
 29 61  1  0
 30 62  1  0
 31 63  1  0
 32 64  1  0
 33 65  1  0
 34 66  1  0
 34 67  1  0
 34 68  1  0
 35 69  1  0
 35 70  1  0
 35 71  1  0
M  END
$$$$
