
     RDKit          3D

 71 70  0  0  0  0  0  0  0  0999 V2000
    1.5071    0.6940    0.3963 C   0  0  0  0  0  0  0  0  0  0  0  0
    2.2036    1.6388   -0.3820 C   0  0  0  0  0  0  0  0  0  0  0  0
    1.9972   -0.6228    0.4232 C   0  0  0  0  0  0  0  0  0  0  0  0
    3.3214    1.2629   -1.1257 C   0  0  0  0  0  0  0  0  0  0  0  0
    3.1185   -0.9793   -0.3246 C   0  0  0  0  0  0  0  0  0  0  0  0
    3.7863   -0.0449   -1.1055 C   0  0  0  0  0  0  0  0  0  0  0  0
   -1.3886   -0.4009    0.1584 N   0  0  0  0  0  0  0  0  0  0  0  0
    0.3074    1.1161    1.2289 C   0  0  2  0  0  0  0  0  0  0  0  0
   -0.8154    0.0567    1.4298 C   0  0  0  0  0  0  0  0  0  0  0  0
    3.5379   -2.2762   -0.2574 O   0  0  0  0  0  0  0  0  0  0  0  0
    3.9942    2.1661   -1.8957 O   0  0  0  0  0  0  0  0  0  0  0  0
   -0.2891    2.2923    0.6509 O   0  0  0  0  0  0  0  0  0  0  0  0
   -2.7047   -1.0204    0.2905 C   0  0  0  0  0  0  0  0  0  0  0  0
   -2.8821   -1.9979   -0.8692 C   0  0  0  0  0  0  0  0  0  0  0  0
   -3.8172    0.0292    0.2767 C   0  0  0  0  0  0  0  0  0  0  0  0
   -0.1439   -0.2665    0.2818 S   0  0  0  0  0  0  0  0  0  0  0  0
   -0.6175    0.3257    1.5077 O   0  0  0  0  0  0  0  0  0  0  0  0
    0.1105   -1.6781    0.1333 O   0  0  0  0  0  0  0  0  0  0  0  0
   -1.1295    0.2144   -0.8890 O   0  0  0  0  0  0  0  0  0  0  0  0
    1.2201    0.4752   -0.1217 O   0  0  0  0  0  0  0  0  0  0  0  0
   -1.3718   -0.8482    0.1965 C   0  0  0  0  0  0  0  0  0  0  0  0
   -1.6817    0.2713    0.9874 C   0  0  0  0  0  0  0  0  0  0  0  0
   -2.3108   -1.2519   -0.7674 C   0  0  0  0  0  0  0  0  0  0  0  0
   -2.8751    0.9672    0.7976 C   0  0  0  0  0  0  0  0  0  0  0  0
   -3.5006   -0.5467   -0.9425 C   0  0  0  0  0  0  0  0  0  0  0  0
   -3.7950    0.5690   -0.1665 C   0  0  0  0  0  0  0  0  0  0  0  0
    1.5259   -0.2552   -0.8944 N   0  0  0  0  0  0  0  0  0  0  0  0
   -0.0852   -1.6239    0.4255 C   0  0  2  0  0  0  0  0  0  0  0  0
    1.2079   -0.7603    0.4606 C   0  0  0  0  0  0  0  0  0  0  0  0
   -4.3660   -0.9954   -1.8999 O   0  0  0  0  0  0  0  0  0  0  0  0
   -3.1056    2.0478    1.5986 O   0  0  0  0  0  0  0  0  0  0  0  0
    0.0951   -2.6221   -0.5894 O   0  0  0  0  0  0  0  0  0  0  0  0
    2.7460    0.5604   -0.9861 C   0  0  0  0  0  0  0  0  0  0  0  0
    2.5934    1.9225   -0.3070 C   0  0  0  0  0  0  0  0  0  0  0  0
    3.9988   -0.1633   -0.4922 C   0  0  0  0  0  0  0  0  0  0  0  0
    1.8565    2.6691   -0.4041 H   0  0  0  0  0  0  0  0  0  0  0  0
    1.5101   -1.3947    1.0138 H   0  0  0  0  0  0  0  0  0  0  0  0
    4.6559   -0.3102   -1.6933 H   0  0  0  0  0  0  0  0  0  0  0  0
   -1.4010    0.3670   -0.5157 H   0  0  0  0  0  0  0  0  0  0  0  0
    0.6858    1.4098    2.2147 H   0  0  0  0  0  0  0  0  0  0  0  0
   -1.5989    0.5195    2.0432 H   0  0  0  0  0  0  0  0  0  0  0  0
   -0.4353   -0.8064    1.9881 H   0  0  0  0  0  0  0  0  0  0  0  0
    4.2979   -2.3827   -0.8547 H   0  0  0  0  0  0  0  0  0  0  0  0
    3.5345    3.0194   -1.8416 H   0  0  0  0  0  0  0  0  0  0  0  0
   -1.0922    2.4818    1.1637 H   0  0  0  0  0  0  0  0  0  0  0  0
   -2.7661   -1.5978    1.2206 H   0  0  0  0  0  0  0  0  0  0  0  0
   -3.8758   -2.4602   -0.8391 H   0  0  0  0  0  0  0  0  0  0  0  0
   -2.1544   -2.8099   -0.7993 H   0  0  0  0  0  0  0  0  0  0  0  0
   -2.7667   -1.5064   -1.8396 H   0  0  0  0  0  0  0  0  0  0  0  0
   -4.8004   -0.4552    0.3076 H   0  0  0  0  0  0  0  0  0  0  0  0
   -3.7775    0.6524   -0.6248 H   0  0  0  0  0  0  0  0  0  0  0  0
   -3.7489    0.6907    1.1510 H   0  0  0  0  0  0  0  0  0  0  0  0
   -1.3490    1.1522   -0.7235 H   0  0  0  0  0  0  0  0  0  0  0  0
    1.9093   -0.2230   -0.1887 H   0  0  0  0  0  0  0  0  0  0  0  0
   -1.0062    0.6103    1.7692 H   0  0  0  0  0  0  0  0  0  0  0  0
   -2.1260   -2.1287   -1.3854 H   0  0  0  0  0  0  0  0  0  0  0  0
   -4.7199    1.1141   -0.3076 H   0  0  0  0  0  0  0  0  0  0  0  0
    0.7326    0.3037   -1.2247 H   0  0  0  0  0  0  0  0  0  0  0  0
   -0.1863   -2.1572    1.3774 H   0  0  0  0  0  0  0  0  0  0  0  0
    2.0198   -1.4220    0.7870 H   0  0  0  0  0  0  0  0  0  0  0  0
    1.1203    0.0542    1.1873 H   0  0  0  0  0  0  0  0  0  0  0  0
   -5.1372   -0.4083   -1.9296 H   0  0  0  0  0  0  0  0  0  0  0  0
   -3.9959    2.3879    1.4138 H   0  0  0  0  0  0  0  0  0  0  0  0
    0.6638   -2.1777   -1.2579 H   0  0  0  0  0  0  0  0  0  0  0  0
    2.8955    0.7487   -2.0573 H   0  0  0  0  0  0  0  0  0  0  0  0
    1.7121    2.4503   -0.6816 H   0  0  0  0  0  0  0  0  0  0  0  0
    3.4666    2.5499   -0.5154 H   0  0  0  0  0  0  0  0  0  0  0  0
    2.5019    1.8378    0.7807 H   0  0  0  0  0  0  0  0  0  0  0  0
    3.9995   -0.2809    0.5964 H   0  0  0  0  0  0  0  0  0  0  0  0
    4.0874   -1.1548   -0.9475 H   0  0  0  0  0  0  0  0  0  0  0  0
    4.8966    0.4014   -0.7631 H   0  0  0  0  0  0  0  0  0  0  0  0
  2  1  2  0
  3  1  1  0
  4  2  1  0
  5  3  2  0
  6  4  2  0
  7  9  1  0
  8  1  1  0
  9  8  1  0
 10  5  1  0
 11  4  1  0
 12  8  1  0
 13  7  1  0
 14 13  1  0
 15 13  1  0
  6  5  1  0
 17 16  2  0
 18 16  2  0
 19 16  1  0
 20 16  1  0
 22 21  2  0
 23 21  1  0
 24 22  1  0
 25 23  2  0
 26 24  2  0
 27 29  1  0
 28 21  1  0
 29 28  1  0
 30 25  1  0
 31 24  1  0
 32 28  1  0
 33 27  1  0
 34 33  1  0
 35 33  1  0
 26 25  1  0
  2 36  1  0
  3 37  1  0
  6 38  1  0
  7 39  1  0
  8 40  1  1
  9 41  1  0
  9 42  1  0
 10 43  1  0
 11 44  1  0
 12 45  1  0
 13 46  1  0
 14 47  1  0
 14 48  1  0
 14 49  1  0
 15 50  1  0
 15 51  1  0
 15 52  1  0
 19 53  1  0
 20 54  1  0
 22 55  1  0
 23 56  1  0
 26 57  1  0
 27 58  1  0
 28 59  1  1
 29 60  1  0
 29 61  1  0
 30 62  1  0
 31 63  1  0
 32 64  1  0
 33 65  1  0
 34 66  1  0
 34 67  1  0
 34 68  1  0
 35 69  1  0
 35 70  1  0
 35 71  1  0
M  END
$$$$
