
     RDKit          3D

 71 70  0  0  0  0  0  0  0  0999 V2000
    1.5506    0.4739   -0.0458 C   0  0  0  0  0  0  0  0  0  0  0  0
    2.2499    1.6639   -0.3338 C   0  0  0  0  0  0  0  0  0  0  0  0
    2.2746   -0.6066    0.4866 C   0  0  0  0  0  0  0  0  0  0  0  0
    3.6220    1.7530   -0.1141 C   0  0  0  0  0  0  0  0  0  0  0  0
    3.6502   -0.4948    0.7017 C   0  0  0  0  0  0  0  0  0  0  0  0
    4.3287    0.6788    0.4027 C   0  0  0  0  0  0  0  0  0  0  0  0
   -2.0282   -0.9186   -0.6891 N   0  0  0  0  0  0  0  0  0  0  0  0
    0.0524    0.4368   -0.2890 C   0  0  2  0  0  0  0  0  0  0  0  0
   -0.6406   -0.9506   -0.1968 C   0  0  0  0  0  0  0  0  0  0  0  0
    4.3747   -1.5326    1.2147 O   0  0  0  0  0  0  0  0  0  0  0  0
    4.3107    2.8976   -0.3935 O   0  0  0  0  0  0  0  0  0  0  0  0
   -0.2039    0.9775   -1.5982 O   0  0  0  0  0  0  0  0  0  0  0  0
   -3.0481   -1.0084    0.3611 C   0  0  0  0  0  0  0  0  0  0  0  0
   -4.4157   -1.0682   -0.3232 C   0  0  0  0  0  0  0  0  0  0  0  0
   -3.0183    0.1601    1.3461 C   0  0  0  0  0  0  0  0  0  0  0  0
   -0.0387    0.3375    0.2502 S   0  0  0  0  0  0  0  0  0  0  0  0
    0.7011    1.5520    0.0077 O   0  0  0  0  0  0  0  0  0  0  0  0
   -0.5961   -0.0019    1.5365 O   0  0  0  0  0  0  0  0  0  0  0  0
    0.9287   -0.8686   -0.1822 O   0  0  0  0  0  0  0  0  0  0  0  0
   -1.2152    0.2068   -0.8358 O   0  0  0  0  0  0  0  0  0  0  0  0
    1.7856   -0.3448   -0.4550 C   0  0  0  0  0  0  0  0  0  0  0  0
    2.0762    0.7930   -1.2332 C   0  0  0  0  0  0  0  0  0  0  0  0
    2.8019   -0.8732    0.3620 C   0  0  0  0  0  0  0  0  0  0  0  0
    3.3374    1.3836   -1.1726 C   0  0  0  0  0  0  0  0  0  0  0  0
    4.0607   -0.2745    0.3978 C   0  0  0  0  0  0  0  0  0  0  0  0
    4.3352    0.8548   -0.3646 C   0  0  0  0  0  0  0  0  0  0  0  0
   -2.0056   -0.7620    0.0238 N   0  0  0  0  0  0  0  0  0  0  0  0
    0.4163   -0.9947   -0.5402 C   0  0  2  0  0  0  0  0  0  0  0  0
   -0.7383   -0.0255   -0.1696 C   0  0  0  0  0  0  0  0  0  0  0  0
    5.0594   -0.7769    1.1823 O   0  0  0  0  0  0  0  0  0  0  0  0
    3.6331    2.4975   -1.9067 O   0  0  0  0  0  0  0  0  0  0  0  0
    0.3373   -2.1497    0.3088 O   0  0  0  0  0  0  0  0  0  0  0  0
   -3.1890    0.1007   -0.1088 C   0  0  0  0  0  0  0  0  0  0  0  0
   -4.4286   -0.7968   -0.0553 C   0  0  0  0  0  0  0  0  0  0  0  0
   -3.2738    1.1742    0.9791 C   0  0  0  0  0  0  0  0  0  0  0  0
    1.7032    2.5160   -0.7340 H   0  0  0  0  0  0  0  0  0  0  0  0
    1.7757   -1.5381    0.7361 H   0  0  0  0  0  0  0  0  0  0  0  0
    5.3980    0.7564    0.5754 H   0  0  0  0  0  0  0  0  0  0  0  0
   -2.1583   -0.0604   -1.2341 H   0  0  0  0  0  0  0  0  0  0  0  0
   -0.4150    1.1201    0.4306 H   0  0  0  0  0  0  0  0  0  0  0  0
   -0.1111   -1.6494   -0.8590 H   0  0  0  0  0  0  0  0  0  0  0  0
   -0.5710   -1.3633    0.8176 H   0  0  0  0  0  0  0  0  0  0  0  0
    3.7764   -2.2669    1.4238 H   0  0  0  0  0  0  0  0  0  0  0  0
    3.6987    3.5408   -0.7885 H   0  0  0  0  0  0  0  0  0  0  0  0
    0.1181    0.3125   -2.2341 H   0  0  0  0  0  0  0  0  0  0  0  0
   -2.9130   -1.9461    0.9128 H   0  0  0  0  0  0  0  0  0  0  0  0
   -5.2105   -1.2137    0.4162 H   0  0  0  0  0  0  0  0  0  0  0  0
   -4.6302   -0.1443   -0.8679 H   0  0  0  0  0  0  0  0  0  0  0  0
   -4.4678   -1.9002   -1.0334 H   0  0  0  0  0  0  0  0  0  0  0  0
   -2.0968    0.1641    1.9343 H   0  0  0  0  0  0  0  0  0  0  0  0
   -3.1021    1.1234    0.8340 H   0  0  0  0  0  0  0  0  0  0  0  0
   -3.8534    0.0872    2.0523 H   0  0  0  0  0  0  0  0  0  0  0  0
    1.8496   -0.5528   -0.0507 H   0  0  0  0  0  0  0  0  0  0  0  0
   -1.6295   -0.6730   -0.7256 H   0  0  0  0  0  0  0  0  0  0  0  0
    1.3195    1.2033   -1.8970 H   0  0  0  0  0  0  0  0  0  0  0  0
    2.6032   -1.7624    0.9586 H   0  0  0  0  0  0  0  0  0  0  0  0
    5.3159    1.3172   -0.3270 H   0  0  0  0  0  0  0  0  0  0  0  0
   -1.9932   -1.1544    0.9710 H   0  0  0  0  0  0  0  0  0  0  0  0
    0.2752   -1.3589   -1.5680 H   0  0  0  0  0  0  0  0  0  0  0  0
   -0.8433    0.7227   -0.9669 H   0  0  0  0  0  0  0  0  0  0  0  0
   -0.4968    0.5063    0.7610 H   0  0  0  0  0  0  0  0  0  0  0  0
    4.7077   -1.5364    1.6744 H   0  0  0  0  0  0  0  0  0  0  0  0
    2.8075    2.8643   -2.2659 H   0  0  0  0  0  0  0  0  0  0  0  0
   -0.5683   -2.4836    0.1573 H   0  0  0  0  0  0  0  0  0  0  0  0
   -3.1732    0.5855   -1.0938 H   0  0  0  0  0  0  0  0  0  0  0  0
   -4.5146   -1.3068    0.9139 H   0  0  0  0  0  0  0  0  0  0  0  0
   -4.3994   -1.5636   -0.8416 H   0  0  0  0  0  0  0  0  0  0  0  0
   -5.3408   -0.2086   -0.2057 H   0  0  0  0  0  0  0  0  0  0  0  0
   -3.2669    0.7344    1.9847 H   0  0  0  0  0  0  0  0  0  0  0  0
   -4.1991    1.7526    0.8726 H   0  0  0  0  0  0  0  0  0  0  0  0
   -2.4415    1.8828    0.9087 H   0  0  0  0  0  0  0  0  0  0  0  0
  2  1  2  0
  3  1  1  0
  4  2  1  0
  5  3  2  0
  6  4  2  0
  7  9  1  0
  8  1  1  0
  9  8  1  0
 10  5  1  0
 11  4  1  0
 12  8  1  0
 13  7  1  0
 14 13  1  0
 15 13  1  0
  6  5  1  0
 17 16  2  0
 18 16  2  0
 19 16  1  0
 20 16  1  0
 22 21  2  0
 23 21  1  0
 24 22  1  0
 25 23  2  0
 26 24  2  0
 27 29  1  0
 28 21  1  0
 29 28  1  0
 30 25  1  0
 31 24  1  0
 32 28  1  0
 33 27  1  0
 34 33  1  0
 35 33  1  0
 26 25  1  0
  2 36  1  0
  3 37  1  0
  6 38  1  0
  7 39  1  0
  8 40  1  1
  9 41  1  0
  9 42  1  0
 10 43  1  0
 11 44  1  0
 12 45  1  0
 13 46  1  0
 14 47  1  0
 14 48  1  0
 14 49  1  0
 15 50  1  0
 15 51  1  0
 15 52  1  0
 19 53  1  0
 20 54  1  0
 22 55  1  0
 23 56  1  0
 26 57  1  0
 27 58  1  0
 28 59  1  6
 29 60  1  0
 29 61  1  0
 30 62  1  0
 31 63  1  0
 32 64  1  0
 33 65  1  0
 34 66  1  0
 34 67  1  0
 34 68  1  0
 35 69  1  0
 35 70  1  0
 35 71  1  0
M  END
$$$$
