
     RDKit          3D

 69 74  0  0  0  0  0  0  0  0999 V2000
   -4.0247   -1.4877    0.3498 C   0  0  0  0  0  0  0  0  0  0  0  0
   -0.4252    1.5611   -1.3973 N   0  0  0  0  0  0  0  0  0  0  0  0
   -1.3913    3.3862   -0.5930 N   0  0  0  0  0  0  0  0  0  0  0  0
   -4.2856   -1.9848    1.5448 N   0  0  0  0  0  0  0  0  0  0  0  0
   -4.4868   -2.3406   -0.6340 N   0  0  0  0  0  0  0  0  0  0  0  0
   -1.5851    1.1306   -0.7846 C   0  0  0  0  0  0  0  0  0  0  0  0
   -0.3502    2.9339   -1.2619 C   0  0  0  0  0  0  0  0  0  0  0  0
   -2.1499    2.2919   -0.2667 C   0  0  0  0  0  0  0  0  0  0  0  0
   -3.3673   -0.2017    0.1141 C   0  0  0  0  0  0  0  0  0  0  0  0
   -5.0113   -3.4601   -0.0286 C   0  0  0  0  0  0  0  0  0  0  0  0
   -4.8736   -3.2035    1.3311 C   0  0  0  0  0  0  0  0  0  0  0  0
   -2.1712   -0.1328   -0.6175 C   0  0  0  0  0  0  0  0  0  0  0  0
    5.8797   -1.7564    1.0768 C   0  0  0  0  0  0  0  0  0  0  0  0
   -3.3423    2.2297    0.4801 C   0  0  0  0  0  0  0  0  0  0  0  0
    5.3017   -0.4761    0.9639 C   0  0  0  0  0  0  0  0  0  0  0  0
    5.3720   -2.9414    0.3534 C   0  0  0  0  0  0  0  0  0  0  0  0
   -3.9260    0.9595    0.6639 C   0  0  0  0  0  0  0  0  0  0  0  0
    0.5185    0.7145   -2.1157 C   0  0  0  0  0  0  0  0  0  0  0  0
    4.0930   -0.1974    0.1771 C   0  0  0  0  0  0  0  0  0  0  0  0
    5.2348   -4.0571    0.8228 O   0  0  0  0  0  0  0  0  0  0  0  0
    2.8245   -0.5292    0.6722 C   0  0  0  0  0  0  0  0  0  0  0  0
    4.1772    0.4291   -1.0738 C   0  0  0  0  0  0  0  0  0  0  0  0
    1.7543    0.3994   -1.3071 C   0  0  0  0  0  0  0  0  0  0  0  0
   -4.4635   -2.0937   -2.0570 C   0  0  0  0  0  0  0  0  0  0  0  0
    5.1865   -2.7006   -0.9554 O   0  0  0  0  0  0  0  0  0  0  0  0
    0.7593    3.7698   -1.8230 C   0  0  0  0  0  0  0  0  0  0  0  0
    3.0244    0.7158   -1.8112 C   0  0  0  0  0  0  0  0  0  0  0  0
    1.6698   -0.2371   -0.0605 C   0  0  0  0  0  0  0  0  0  0  0  0
   -5.5841   -4.6418   -0.5177 C   0  0  0  0  0  0  0  0  0  0  0  0
   -5.3200   -4.1514    2.2635 C   0  0  0  0  0  0  0  0  0  0  0  0
    6.9882   -1.9701    1.9131 C   0  0  0  0  0  0  0  0  0  0  0  0
    5.8944    0.5787    1.6856 C   0  0  0  0  0  0  0  0  0  0  0  0
   -3.9882    3.4356    1.0953 C   0  0  0  0  0  0  0  0  0  0  0  0
    0.7508    5.2192   -1.3298 C   0  0  0  0  0  0  0  0  0  0  0  0
   -6.0227   -5.5776    0.4274 C   0  0  0  0  0  0  0  0  0  0  0  0
    7.5543   -0.9092    2.6180 C   0  0  0  0  0  0  0  0  0  0  0  0
    7.0102    0.3664    2.4997 C   0  0  0  0  0  0  0  0  0  0  0  0
   -5.8945   -5.3399    1.7966 C   0  0  0  0  0  0  0  0  0  0  0  0
    1.1511    5.3540    0.1346 C   0  0  0  0  0  0  0  0  0  0  0  0
   -1.7039   -1.0313   -1.0053 H   0  0  0  0  0  0  0  0  0  0  0  0
   -4.8377    0.8761    1.2563 H   0  0  0  0  0  0  0  0  0  0  0  0
    0.7689    1.2336   -3.0481 H   0  0  0  0  0  0  0  0  0  0  0  0
    0.0151   -0.2152   -2.4011 H   0  0  0  0  0  0  0  0  0  0  0  0
    2.7253   -1.0098    1.6443 H   0  0  0  0  0  0  0  0  0  0  0  0
    5.1507    0.6899   -1.4859 H   0  0  0  0  0  0  0  0  0  0  0  0
   -3.4947   -2.4197   -2.4445 H   0  0  0  0  0  0  0  0  0  0  0  0
   -5.2682   -2.6527   -2.5402 H   0  0  0  0  0  0  0  0  0  0  0  0
   -4.6172   -1.0281   -2.2482 H   0  0  0  0  0  0  0  0  0  0  0  0
    4.8893   -3.5609   -1.3166 H   0  0  0  0  0  0  0  0  0  0  0  0
    0.6624    3.7750   -2.9160 H   0  0  0  0  0  0  0  0  0  0  0  0
    1.7295    3.3229   -1.5842 H   0  0  0  0  0  0  0  0  0  0  0  0
    3.1339    1.1973   -2.7810 H   0  0  0  0  0  0  0  0  0  0  0  0
    0.7045   -0.5046    0.3661 H   0  0  0  0  0  0  0  0  0  0  0  0
   -5.6885   -4.8352   -1.5796 H   0  0  0  0  0  0  0  0  0  0  0  0
   -5.2145   -3.9570    3.3244 H   0  0  0  0  0  0  0  0  0  0  0  0
    7.4146   -2.9672    2.0059 H   0  0  0  0  0  0  0  0  0  0  0  0
    5.4719    1.5811    1.6270 H   0  0  0  0  0  0  0  0  0  0  0  0
   -3.4507    4.3534    0.8371 H   0  0  0  0  0  0  0  0  0  0  0  0
   -3.9957    3.3434    2.1859 H   0  0  0  0  0  0  0  0  0  0  0  0
   -5.0180    3.5359    0.7387 H   0  0  0  0  0  0  0  0  0  0  0  0
   -0.2343    5.6749   -1.4852 H   0  0  0  0  0  0  0  0  0  0  0  0
    1.4646    5.7937   -1.9325 H   0  0  0  0  0  0  0  0  0  0  0  0
   -6.4722   -6.5094    0.0871 H   0  0  0  0  0  0  0  0  0  0  0  0
    8.4154   -1.0783    3.2597 H   0  0  0  0  0  0  0  0  0  0  0  0
    7.4438    1.1989    3.0486 H   0  0  0  0  0  0  0  0  0  0  0  0
   -6.2431   -6.0813    2.5112 H   0  0  0  0  0  0  0  0  0  0  0  0
    0.4403    4.8525    0.7978 H   0  0  0  0  0  0  0  0  0  0  0  0
    1.1835    6.4107    0.4193 H   0  0  0  0  0  0  0  0  0  0  0  0
    2.1439    4.9264    0.3100 H   0  0  0  0  0  0  0  0  0  0  0  0
  2  6  1  0
  3  8  1  0
  4  1  2  0
  5  1  1  0
  6 12  2  0
  7  2  1  0
  8 14  2  0
  9  1  1  0
 10  5  1  0
 11  4  1  0
 12  9  1  0
 13 15  2  0
 14 17  1  0
 15 19  1  0
 16 13  1  0
 17  9  2  0
 18  2  1  0
 19 21  2  0
 20 16  2  0
 21 28  1  0
 22 27  2  0
 23 18  1  0
 24  5  1  0
 25 16  1  0
 26  7  1  0
 27 23  1  0
 28 23  2  0
 29 10  2  0
 30 11  2  0
 31 13  1  0
 32 15  1  0
 33 14  1  0
 34 26  1  0
 35 29  1  0
 36 37  1  0
 37 32  2  0
 38 30  1  0
 39 34  1  0
 10 11  1  0
  8  6  1  0
 35 38  2  0
  3  7  2  0
 19 22  1  0
 36 31  2  0
 12 40  1  0
 17 41  1  0
 18 42  1  0
 18 43  1  0
 21 44  1  0
 22 45  1  0
 24 46  1  0
 24 47  1  0
 24 48  1  0
 25 49  1  0
 26 50  1  0
 26 51  1  0
 27 52  1  0
 28 53  1  0
 29 54  1  0
 30 55  1  0
 31 56  1  0
 32 57  1  0
 33 58  1  0
 33 59  1  0
 33 60  1  0
 34 61  1  0
 34 62  1  0
 35 63  1  0
 36 64  1  0
 37 65  1  0
 38 66  1  0
 39 67  1  0
 39 68  1  0
 39 69  1  0
M  END
$$$$
