
     RDKit          3D

 69 74  0  0  0  0  0  0  0  0999 V2000
    3.9759    1.2165    0.5321 C   0  0  0  0  0  0  0  0  0  0  0  0
    0.1305   -1.9957    0.6923 N   0  0  0  0  0  0  0  0  0  0  0  0
    1.0408   -3.3998   -0.7652 N   0  0  0  0  0  0  0  0  0  0  0  0
    4.1422    1.6312    1.7760 N   0  0  0  0  0  0  0  0  0  0  0  0
    4.5165    2.1342   -0.3505 N   0  0  0  0  0  0  0  0  0  0  0  0
    1.3512   -1.4471    0.3502 C   0  0  0  0  0  0  0  0  0  0  0  0
   -0.0057   -3.1891    0.0088 C   0  0  0  0  0  0  0  0  0  0  0  0
    1.8925   -2.3463   -0.5614 C   0  0  0  0  0  0  0  0  0  0  0  0
    3.2713   -0.0137    0.1582 C   0  0  0  0  0  0  0  0  0  0  0  0
    5.1232    3.1340    0.3764 C   0  0  0  0  0  0  0  0  0  0  0  0
    4.8657    2.7930    1.6993 C   0  0  0  0  0  0  0  0  0  0  0  0
    2.0217   -0.2795    0.7393 C   0  0  0  0  0  0  0  0  0  0  0  0
   -6.2835    1.8934   -0.3536 C   0  0  0  0  0  0  0  0  0  0  0  0
    3.1609   -2.1086   -1.1265 C   0  0  0  0  0  0  0  0  0  0  0  0
   -5.0796    1.5206   -0.9854 C   0  0  0  0  0  0  0  0  0  0  0  0
   -6.5425    1.6324    1.0749 C   0  0  0  0  0  0  0  0  0  0  0  0
    3.8338   -0.9296   -0.7415 C   0  0  0  0  0  0  0  0  0  0  0  0
   -0.8062   -1.4253    1.6507 C   0  0  0  0  0  0  0  0  0  0  0  0
   -4.0028    0.7793   -0.3059 C   0  0  0  0  0  0  0  0  0  0  0  0
   -7.5088    1.0492    1.5280 O   0  0  0  0  0  0  0  0  0  0  0  0
   -2.7210    1.3331   -0.1703 C   0  0  0  0  0  0  0  0  0  0  0  0
   -4.2240   -0.5074    0.2093 C   0  0  0  0  0  0  0  0  0  0  0  0
   -1.9182   -0.6603    0.9736 C   0  0  0  0  0  0  0  0  0  0  0  0
    4.4187    2.1014   -1.7911 C   0  0  0  0  0  0  0  0  0  0  0  0
   -5.6126    2.2048    1.8585 O   0  0  0  0  0  0  0  0  0  0  0  0
   -1.1841   -4.1073    0.1073 C   0  0  0  0  0  0  0  0  0  0  0  0
   -3.1991   -1.2151    0.8463 C   0  0  0  0  0  0  0  0  0  0  0  0
   -1.6922    0.6239    0.4586 C   0  0  0  0  0  0  0  0  0  0  0  0
    5.8451    4.2810    0.0193 C   0  0  0  0  0  0  0  0  0  0  0  0
    5.3385    3.6185    2.7305 C   0  0  0  0  0  0  0  0  0  0  0  0
   -7.3113    2.5299   -1.0674 C   0  0  0  0  0  0  0  0  0  0  0  0
   -4.9349    1.8469   -2.3486 C   0  0  0  0  0  0  0  0  0  0  0  0
    3.8125   -3.0500   -2.0963 C   0  0  0  0  0  0  0  0  0  0  0  0
   -0.7935   -5.5880    0.0636 C   0  0  0  0  0  0  0  0  0  0  0  0
    6.3125    5.0913    1.0619 C   0  0  0  0  0  0  0  0  0  0  0  0
   -7.1410    2.8358   -2.4159 C   0  0  0  0  0  0  0  0  0  0  0  0
   -5.9509    2.4997   -3.0543 C   0  0  0  0  0  0  0  0  0  0  0  0
    6.0650    4.7683    2.3971 C   0  0  0  0  0  0  0  0  0  0  0  0
   -0.0297   -6.0336    1.3047 C   0  0  0  0  0  0  0  0  0  0  0  0
    1.5992    0.4110    1.4631 H   0  0  0  0  0  0  0  0  0  0  0  0
    4.8280   -0.7443   -1.1447 H   0  0  0  0  0  0  0  0  0  0  0  0
   -0.2560   -0.7653    2.3308 H   0  0  0  0  0  0  0  0  0  0  0  0
   -1.1934   -2.2378    2.2753 H   0  0  0  0  0  0  0  0  0  0  0  0
   -2.5163    2.3332   -0.5494 H   0  0  0  0  0  0  0  0  0  0  0  0
   -5.2038   -0.9742    0.1129 H   0  0  0  0  0  0  0  0  0  0  0  0
    4.4518    3.1211   -2.1831 H   0  0  0  0  0  0  0  0  0  0  0  0
    5.2619    1.5240   -2.1780 H   0  0  0  0  0  0  0  0  0  0  0  0
    3.4685    1.6498   -2.0869 H   0  0  0  0  0  0  0  0  0  0  0  0
   -5.9008    1.9923    2.7712 H   0  0  0  0  0  0  0  0  0  0  0  0
   -1.7590   -3.9316    1.0195 H   0  0  0  0  0  0  0  0  0  0  0  0
   -1.8489   -3.8938   -0.7380 H   0  0  0  0  0  0  0  0  0  0  0  0
   -3.4192   -2.2050    1.2401 H   0  0  0  0  0  0  0  0  0  0  0  0
   -0.7128    1.0908    0.5439 H   0  0  0  0  0  0  0  0  0  0  0  0
    6.0420    4.5384   -1.0157 H   0  0  0  0  0  0  0  0  0  0  0  0
    5.1433    3.3596    3.7648 H   0  0  0  0  0  0  0  0  0  0  0  0
   -8.2415    2.7919   -0.5675 H   0  0  0  0  0  0  0  0  0  0  0  0
   -4.0239    1.5727   -2.8792 H   0  0  0  0  0  0  0  0  0  0  0  0
    4.7676   -3.4047   -1.6922 H   0  0  0  0  0  0  0  0  0  0  0  0
    3.9930   -2.5408   -3.0500 H   0  0  0  0  0  0  0  0  0  0  0  0
    3.1825   -3.9253   -2.2927 H   0  0  0  0  0  0  0  0  0  0  0  0
   -1.7092   -6.1868   -0.0141 H   0  0  0  0  0  0  0  0  0  0  0  0
   -0.1958   -5.8063   -0.8297 H   0  0  0  0  0  0  0  0  0  0  0  0
    6.8812    5.9898    0.8271 H   0  0  0  0  0  0  0  0  0  0  0  0
   -7.9345    3.3344   -2.9670 H   0  0  0  0  0  0  0  0  0  0  0  0
   -5.8134    2.7333   -4.1075 H   0  0  0  0  0  0  0  0  0  0  0  0
    6.4406    5.4123    3.1895 H   0  0  0  0  0  0  0  0  0  0  0  0
    0.1711   -7.1074    1.2574 H   0  0  0  0  0  0  0  0  0  0  0  0
    0.9312   -5.5159    1.3931 H   0  0  0  0  0  0  0  0  0  0  0  0
   -0.6102   -5.8377    2.2108 H   0  0  0  0  0  0  0  0  0  0  0  0
  2  6  1  0
  3  8  1  0
  4  1  2  0
  5  1  1  0
  6 12  2  0
  7  2  1  0
  8 14  2  0
  9  1  1  0
 10  5  1  0
 11  4  1  0
 12  9  1  0
 13 15  2  0
 14 17  1  0
 15 19  1  0
 16 13  1  0
 17  9  2  0
 18  2  1  0
 19 21  2  0
 20 16  2  0
 21 28  1  0
 22 27  2  0
 23 18  1  0
 24  5  1  0
 25 16  1  0
 26  7  1  0
 27 23  1  0
 28 23  2  0
 29 10  2  0
 30 11  2  0
 31 13  1  0
 32 15  1  0
 33 14  1  0
 34 26  1  0
 35 29  1  0
 36 37  1  0
 37 32  2  0
 38 30  1  0
 39 34  1  0
 10 11  1  0
  8  6  1  0
 35 38  2  0
  3  7  2  0
 19 22  1  0
 36 31  2  0
 12 40  1  0
 17 41  1  0
 18 42  1  0
 18 43  1  0
 21 44  1  0
 22 45  1  0
 24 46  1  0
 24 47  1  0
 24 48  1  0
 25 49  1  0
 26 50  1  0
 26 51  1  0
 27 52  1  0
 28 53  1  0
 29 54  1  0
 30 55  1  0
 31 56  1  0
 32 57  1  0
 33 58  1  0
 33 59  1  0
 33 60  1  0
 34 61  1  0
 34 62  1  0
 35 63  1  0
 36 64  1  0
 37 65  1  0
 38 66  1  0
 39 67  1  0
 39 68  1  0
 39 69  1  0
M  END
$$$$
