
     RDKit          3D

 69 74  0  0  0  0  0  0  0  0999 V2000
    4.2000   -1.4767    0.1246 C   0  0  0  0  0  0  0  0  0  0  0  0
    0.3232    1.6682    0.7399 N   0  0  0  0  0  0  0  0  0  0  0  0
    1.0648    3.0999   -0.7816 N   0  0  0  0  0  0  0  0  0  0  0  0
    4.5017   -2.3813   -0.7889 N   0  0  0  0  0  0  0  0  0  0  0  0
    4.7664   -1.8168    1.3381 N   0  0  0  0  0  0  0  0  0  0  0  0
    1.5089    1.1372    0.2743 C   0  0  0  0  0  0  0  0  0  0  0  0
    0.0985    2.8620    0.0817 C   0  0  0  0  0  0  0  0  0  0  0  0
    1.9367    2.0452   -0.6894 C   0  0  0  0  0  0  0  0  0  0  0  0
    3.4094   -0.2714   -0.1311 C   0  0  0  0  0  0  0  0  0  0  0  0
    5.4025   -3.0294    1.1978 C   0  0  0  0  0  0  0  0  0  0  0  0
    5.2246   -3.3501   -0.1438 C   0  0  0  0  0  0  0  0  0  0  0  0
    2.2229   -0.0304    0.5796 C   0  0  0  0  0  0  0  0  0  0  0  0
   -5.6298   -1.3585   -1.7896 C   0  0  0  0  0  0  0  0  0  0  0  0
    3.1207    1.8058   -1.4141 C   0  0  0  0  0  0  0  0  0  0  0  0
   -5.3484   -1.3084   -0.4078 C   0  0  0  0  0  0  0  0  0  0  0  0
   -4.7592   -0.7353   -2.8061 C   0  0  0  0  0  0  0  0  0  0  0  0
    3.8341    0.6258   -1.1199 C   0  0  0  0  0  0  0  0  0  0  0  0
   -0.5178    1.0852    1.7766 C   0  0  0  0  0  0  0  0  0  0  0  0
   -4.1243   -0.7085    0.1501 C   0  0  0  0  0  0  0  0  0  0  0  0
   -4.3598   -1.2748   -3.8215 O   0  0  0  0  0  0  0  0  0  0  0  0
   -4.1924    0.3754    1.0372 C   0  0  0  0  0  0  0  0  0  0  0  0
   -2.8574   -1.2135   -0.1797 C   0  0  0  0  0  0  0  0  0  0  0  0
   -1.7675    0.4531    1.2155 C   0  0  0  0  0  0  0  0  0  0  0  0
    4.7429   -1.0256    2.5450 C   0  0  0  0  0  0  0  0  0  0  0  0
   -4.5313    0.5602   -2.5396 O   0  0  0  0  0  0  0  0  0  0  0  0
   -1.0974    3.7328    0.3160 C   0  0  0  0  0  0  0  0  0  0  0  0
   -1.6943   -0.6401    0.3423 C   0  0  0  0  0  0  0  0  0  0  0  0
   -3.0313    0.9460    1.5681 C   0  0  0  0  0  0  0  0  0  0  0  0
    6.1060   -3.8559    2.0836 C   0  0  0  0  0  0  0  0  0  0  0  0
    5.7659   -4.5416   -0.6490 C   0  0  0  0  0  0  0  0  0  0  0  0
   -6.7698   -2.0218   -2.2723 C   0  0  0  0  0  0  0  0  0  0  0  0
   -6.2758   -1.9098    0.4663 C   0  0  0  0  0  0  0  0  0  0  0  0
    3.6266    2.7276   -2.4843 C   0  0  0  0  0  0  0  0  0  0  0  0
   -0.9748    5.0953   -0.3662 C   0  0  0  0  0  0  0  0  0  0  0  0
    6.6365   -5.0426    1.5630 C   0  0  0  0  0  0  0  0  0  0  0  0
   -7.6647   -2.6138   -1.3842 C   0  0  0  0  0  0  0  0  0  0  0  0
   -7.4219   -2.5500   -0.0149 C   0  0  0  0  0  0  0  0  0  0  0  0
    6.4718   -5.3827    0.2190 C   0  0  0  0  0  0  0  0  0  0  0  0
   -2.1904    5.9670   -0.0859 C   0  0  0  0  0  0  0  0  0  0  0  0
    1.8609   -0.7418    1.3139 H   0  0  0  0  0  0  0  0  0  0  0  0
    4.7421    0.4023   -1.6805 H   0  0  0  0  0  0  0  0  0  0  0  0
   -0.7512    1.8824    2.4910 H   0  0  0  0  0  0  0  0  0  0  0  0
    0.0597    0.3357    2.3276 H   0  0  0  0  0  0  0  0  0  0  0  0
   -5.1591    0.7959    1.3090 H   0  0  0  0  0  0  0  0  0  0  0  0
   -2.7636   -2.0622   -0.8553 H   0  0  0  0  0  0  0  0  0  0  0  0
    5.6525   -1.2114    3.1211 H   0  0  0  0  0  0  0  0  0  0  0  0
    3.8643   -1.3148    3.1260 H   0  0  0  0  0  0  0  0  0  0  0  0
    4.7051    0.0359    2.2919 H   0  0  0  0  0  0  0  0  0  0  0  0
   -3.9492    0.8620   -3.2674 H   0  0  0  0  0  0  0  0  0  0  0  0
   -1.9881    3.2215   -0.0643 H   0  0  0  0  0  0  0  0  0  0  0  0
   -1.2350    3.8855    1.3929 H   0  0  0  0  0  0  0  0  0  0  0  0
   -0.7311   -1.0544    0.0473 H   0  0  0  0  0  0  0  0  0  0  0  0
   -3.1290    1.7911    2.2466 H   0  0  0  0  0  0  0  0  0  0  0  0
    6.2405   -3.6000    3.1288 H   0  0  0  0  0  0  0  0  0  0  0  0
    5.6316   -4.7968   -1.6943 H   0  0  0  0  0  0  0  0  0  0  0  0
   -6.9615   -2.0686   -3.3427 H   0  0  0  0  0  0  0  0  0  0  0  0
   -6.0963   -1.8985    1.5410 H   0  0  0  0  0  0  0  0  0  0  0  0
    4.6612    3.0181   -2.2766 H   0  0  0  0  0  0  0  0  0  0  0  0
    3.5851    2.2300   -3.4578 H   0  0  0  0  0  0  0  0  0  0  0  0
    3.0268    3.6409   -2.5421 H   0  0  0  0  0  0  0  0  0  0  0  0
   -0.8689    4.9668   -1.4501 H   0  0  0  0  0  0  0  0  0  0  0  0
   -0.0737    5.6126   -0.0157 H   0  0  0  0  0  0  0  0  0  0  0  0
    7.1891   -5.7127    2.2187 H   0  0  0  0  0  0  0  0  0  0  0  0
   -8.5492   -3.1217   -1.7595 H   0  0  0  0  0  0  0  0  0  0  0  0
   -8.1177   -3.0108    0.6827 H   0  0  0  0  0  0  0  0  0  0  0  0
    6.8940   -6.3102   -0.1609 H   0  0  0  0  0  0  0  0  0  0  0  0
   -2.3063    6.1430    0.9889 H   0  0  0  0  0  0  0  0  0  0  0  0
   -2.0837    6.9382   -0.5798 H   0  0  0  0  0  0  0  0  0  0  0  0
   -3.1053    5.4942   -0.4583 H   0  0  0  0  0  0  0  0  0  0  0  0
  2  6  1  0
  3  8  1  0
  4  1  2  0
  5  1  1  0
  6 12  2  0
  7  2  1  0
  8 14  2  0
  9  1  1  0
 10  5  1  0
 11  4  1  0
 12  9  1  0
 13 15  2  0
 14 17  1  0
 15 19  1  0
 16 13  1  0
 17  9  2  0
 18  2  1  0
 19 21  2  0
 20 16  2  0
 21 28  1  0
 22 27  2  0
 23 18  1  0
 24  5  1  0
 25 16  1  0
 26  7  1  0
 27 23  1  0
 28 23  2  0
 29 10  2  0
 30 11  2  0
 31 13  1  0
 32 15  1  0
 33 14  1  0
 34 26  1  0
 35 29  1  0
 36 37  1  0
 37 32  2  0
 38 30  1  0
 39 34  1  0
 10 11  1  0
  8  6  1  0
 35 38  2  0
  3  7  2  0
 19 22  1  0
 36 31  2  0
 12 40  1  0
 17 41  1  0
 18 42  1  0
 18 43  1  0
 21 44  1  0
 22 45  1  0
 24 46  1  0
 24 47  1  0
 24 48  1  0
 25 49  1  0
 26 50  1  0
 26 51  1  0
 27 52  1  0
 28 53  1  0
 29 54  1  0
 30 55  1  0
 31 56  1  0
 32 57  1  0
 33 58  1  0
 33 59  1  0
 33 60  1  0
 34 61  1  0
 34 62  1  0
 35 63  1  0
 36 64  1  0
 37 65  1  0
 38 66  1  0
 39 67  1  0
 39 68  1  0
 39 69  1  0
M  END
$$$$
