
     RDKit          3D

104107  0  0  0  0  0  0  0  0999 V2000
    5.4210   -3.6045    0.3241 C   0  0  0  0  0  0  0  0  0  0  0  0
    6.0702   -4.6684   -0.1666 F   0  0  0  0  0  0  0  0  0  0  0  0
    5.4894   -3.3253    1.6832 C   0  0  0  0  0  0  0  0  0  0  0  0
    4.8110   -2.2166    2.1844 C   0  0  0  0  0  0  0  0  0  0  0  0
    4.8688   -1.9924    3.5059 F   0  0  0  0  0  0  0  0  0  0  0  0
    4.0602   -1.3899    1.3424 C   0  0  0  0  0  0  0  0  0  0  0  0
    3.9337    0.4325    2.7870 O   0  0  0  0  0  0  0  0  0  0  0  0
    3.3808   -0.1962    1.8923 C   0  0  0  0  0  0  0  0  0  0  0  0
    2.1576    0.0946    1.3292 N   0  0  0  0  0  0  0  0  0  0  0  0
    4.0060   -1.6966   -0.0191 C   0  0  0  0  0  0  0  0  0  0  0  0
    3.3031   -0.9321   -0.8692 F   0  0  0  0  0  0  0  0  0  0  0  0
    4.6844   -2.7984   -0.5344 C   0  0  0  0  0  0  0  0  0  0  0  0
    0.1625    1.1354    0.9069 N   0  0  0  0  0  0  0  0  0  0  0  0
   -0.7180    2.1486    1.0995 C   0  0  0  0  0  0  0  0  0  0  0  0
    1.3152    1.1725    1.6069 C   0  0  0  0  0  0  0  0  0  0  0  0
    1.6176    2.1928    2.4975 C   0  0  0  0  0  0  0  0  0  0  0  0
    0.7012    3.2274    2.6729 C   0  0  0  0  0  0  0  0  0  0  0  0
   -0.4861    3.2164    1.9556 C   0  0  0  0  0  0  0  0  0  0  0  0
   -2.0024    2.0857    0.3416 C   0  0  0  0  0  0  0  0  0  0  0  0
   -2.3706    0.7779   -0.3510 C   0  0  0  0  0  0  0  0  0  0  0  0
   -3.8664    0.4599   -0.1606 C   0  0  0  0  0  0  0  0  0  0  0  0
   -4.5352   -0.0548   -1.4370 C   0  0  0  0  0  0  0  0  0  0  0  0
   -3.6490   -1.0131   -2.0971 N   0  0  0  0  0  0  0  0  0  0  0  0
   -2.4236   -0.3820   -2.6069 C   0  0  0  0  0  0  0  0  0  0  0  0
   -2.0032    0.8717   -1.8329 C   0  0  0  0  0  0  0  0  0  0  0  0
   -2.7234    3.0831    0.2836 O   0  0  0  0  0  0  0  0  0  0  0  0
   -4.3390   -1.7569   -3.1476 C   0  0  0  0  0  0  0  0  0  0  0  0
   -6.6642   -0.3661   -1.8101 C   0  0  0  0  0  0  0  0  0  0  0  0
   -7.8874   -0.4389   -2.3473 F   0  0  0  0  0  0  0  0  0  0  0  0
   -6.4457   -0.8608   -0.5333 C   0  0  0  0  0  0  0  0  0  0  0  0
   -5.1682   -0.7809    0.0171 C   0  0  0  0  0  0  0  0  0  0  0  0
   -4.9973   -1.2615    1.2591 F   0  0  0  0  0  0  0  0  0  0  0  0
   -4.0982   -0.2196   -0.6887 C   0  0  0  0  0  0  0  0  0  0  0  0
   -1.7891    0.1003   -0.8843 O   0  0  0  0  0  0  0  0  0  0  0  0
   -2.7190   -0.1364   -0.1232 C   0  0  0  0  0  0  0  0  0  0  0  0
   -2.6059   -0.3543    1.2398 N   0  0  0  0  0  0  0  0  0  0  0  0
   -4.3539    0.2666   -1.9773 C   0  0  0  0  0  0  0  0  0  0  0  0
   -3.3951    0.8458   -2.7134 F   0  0  0  0  0  0  0  0  0  0  0  0
   -5.6283    0.1970   -2.5395 C   0  0  0  0  0  0  0  0  0  0  0  0
   -0.2810    0.1463    1.3938 N   0  0  0  0  0  0  0  0  0  0  0  0
    0.8386    0.2223    2.1472 C   0  0  0  0  0  0  0  0  0  0  0  0
   -1.4156   -0.2668    1.9773 C   0  0  0  0  0  0  0  0  0  0  0  0
   -1.4696   -0.6065    3.3266 C   0  0  0  0  0  0  0  0  0  0  0  0
   -0.3096   -0.5255    4.0939 C   0  0  0  0  0  0  0  0  0  0  0  0
    0.8720   -0.1063    3.4949 C   0  0  0  0  0  0  0  0  0  0  0  0
    2.0830    0.6839    1.4615 C   0  0  0  0  0  0  0  0  0  0  0  0
    1.9984    1.0335   -0.0269 C   0  0  0  0  0  0  0  0  0  0  0  0
    1.9580   -0.2282   -0.8933 C   0  0  0  0  0  0  0  0  0  0  0  0
    3.3300   -0.8910   -1.0189 C   0  0  0  0  0  0  0  0  0  0  0  0
    4.3219    0.0533   -1.5450 N   0  0  0  0  0  0  0  0  0  0  0  0
    4.4724    1.2079   -0.6498 C   0  0  0  0  0  0  0  0  0  0  0  0
    3.1476    1.9511   -0.4636 C   0  0  0  0  0  0  0  0  0  0  0  0
    3.1256    0.7676    2.1108 O   0  0  0  0  0  0  0  0  0  0  0  0
    5.6099   -0.6140   -1.7371 C   0  0  0  0  0  0  0  0  0  0  0  0
   -2.2248    0.7411   -1.1690 O   0  0  0  0  0  0  0  0  0  0  0  0
   -1.8931   -0.3365   -0.4349 C   0  0  0  0  0  0  0  0  0  0  0  0
   -2.7359   -0.9368    0.2102 O   0  0  0  0  0  0  0  0  0  0  0  0
   -0.4328   -0.6564   -0.5061 C   0  0  0  0  0  0  0  0  0  0  0  0
    0.3677    0.3502    0.3059 C   0  0  0  0  0  0  0  0  0  0  0  0
    1.8339    0.0365    0.2486 C   0  0  0  0  0  0  0  0  0  0  0  0
    2.3772   -0.8558   -0.3802 O   0  0  0  0  0  0  0  0  0  0  0  0
    2.5600    0.8890    0.9990 O   0  0  0  0  0  0  0  0  0  0  0  0
    6.0622   -3.9641    2.3475 H   0  0  0  0  0  0  0  0  0  0  0  0
    1.7802   -0.5032    0.6040 H   0  0  0  0  0  0  0  0  0  0  0  0
    4.6398   -3.0235   -1.5959 H   0  0  0  0  0  0  0  0  0  0  0  0
    2.5448    2.2173    3.0562 H   0  0  0  0  0  0  0  0  0  0  0  0
    0.9179    4.0352    3.3653 H   0  0  0  0  0  0  0  0  0  0  0  0
   -1.2148    4.0138    2.0701 H   0  0  0  0  0  0  0  0  0  0  0  0
   -1.8098   -0.0487    0.1022 H   0  0  0  0  0  0  0  0  0  0  0  0
   -3.9528   -0.3052    0.6236 H   0  0  0  0  0  0  0  0  0  0  0  0
   -4.4347    1.3213    0.2094 H   0  0  0  0  0  0  0  0  0  0  0  0
   -5.4811   -0.5343   -1.1517 H   0  0  0  0  0  0  0  0  0  0  0  0
   -4.7846    0.7797   -2.1056 H   0  0  0  0  0  0  0  0  0  0  0  0
   -1.6170   -1.1235   -2.5574 H   0  0  0  0  0  0  0  0  0  0  0  0
   -2.5258   -0.1010   -3.6630 H   0  0  0  0  0  0  0  0  0  0  0  0
   -2.4921    1.7506   -2.2755 H   0  0  0  0  0  0  0  0  0  0  0  0
   -0.9235    1.0307   -1.9520 H   0  0  0  0  0  0  0  0  0  0  0  0
   -5.1883   -2.3096   -2.7294 H   0  0  0  0  0  0  0  0  0  0  0  0
   -4.7161   -1.1019   -3.9420 H   0  0  0  0  0  0  0  0  0  0  0  0
   -3.6700   -2.5008   -3.5964 H   0  0  0  0  0  0  0  0  0  0  0  0
   -7.2646   -1.2951    0.0297 H   0  0  0  0  0  0  0  0  0  0  0  0
   -3.4296   -0.6301    1.7578 H   0  0  0  0  0  0  0  0  0  0  0  0
   -5.8042    0.5860   -3.5366 H   0  0  0  0  0  0  0  0  0  0  0  0
   -2.3929   -0.9427    3.7872 H   0  0  0  0  0  0  0  0  0  0  0  0
   -0.3271   -0.7844    5.1491 H   0  0  0  0  0  0  0  0  0  0  0  0
    1.7929   -0.0318    4.0664 H   0  0  0  0  0  0  0  0  0  0  0  0
    1.0703    1.6026   -0.1697 H   0  0  0  0  0  0  0  0  0  0  0  0
    1.5996    0.0428   -1.8961 H   0  0  0  0  0  0  0  0  0  0  0  0
    1.2466   -0.9617   -0.4968 H   0  0  0  0  0  0  0  0  0  0  0  0
    3.2313   -1.7411   -1.7048 H   0  0  0  0  0  0  0  0  0  0  0  0
    3.6446   -1.2944   -0.0482 H   0  0  0  0  0  0  0  0  0  0  0  0
    4.8806    0.8992    0.3194 H   0  0  0  0  0  0  0  0  0  0  0  0
    5.1945    1.9129   -1.0808 H   0  0  0  0  0  0  0  0  0  0  0  0
    2.8754    2.4241   -1.4173 H   0  0  0  0  0  0  0  0  0  0  0  0
    3.2861    2.7651    0.2585 H   0  0  0  0  0  0  0  0  0  0  0  0
    6.3374    0.0759   -2.1772 H   0  0  0  0  0  0  0  0  0  0  0  0
    5.5076   -1.4487   -2.4393 H   0  0  0  0  0  0  0  0  0  0  0  0
    6.0221   -0.9974   -0.7970 H   0  0  0  0  0  0  0  0  0  0  0  0
   -3.1934    0.8330   -1.0409 H   0  0  0  0  0  0  0  0  0  0  0  0
   -0.1229   -0.6758   -1.5579 H   0  0  0  0  0  0  0  0  0  0  0  0
   -0.2848   -1.6703   -0.1176 H   0  0  0  0  0  0  0  0  0  0  0  0
    0.2171    1.3628   -0.0865 H   0  0  0  0  0  0  0  0  0  0  0  0
    0.0458    0.3302    1.3543 H   0  0  0  0  0  0  0  0  0  0  0  0
    3.4859    0.5889    0.8778 H   0  0  0  0  0  0  0  0  0  0  0  0
  1  2  1  0
  1 12  2  0
  3  1  1  0
  3  4  2  0
  4  6  1  0
  5  4  1  0
  7  8  2  0
  8  9  1  0
  8  6  1  0
  9 15  1  0
 10 11  1  0
 10  6  2  0
 12 10  1  0
 13 14  2  0
 14 18  1  0
 15 13  1  0
 15 16  2  0
 16 17  1  0
 18 17  2  0
 19 14  1  0
 19 20  1  0
 20 21  1  0
 21 22  1  0
 22 23  1  0
 23 24  1  0
 23 27  1  0
 24 25  1  0
 25 20  1  0
 26 19  2  0
 28 29  1  0
 28 39  2  0
 30 28  1  0
 30 31  2  0
 31 33  1  0
 32 31  1  0
 34 35  2  0
 35 36  1  0
 35 33  1  0
 36 42  1  0
 37 38  1  0
 37 33  2  0
 39 37  1  0
 40 41  2  0
 41 45  1  0
 42 40  1  0
 42 43  2  0
 43 44  1  0
 45 44  2  0
 46 41  1  0
 46 47  1  0
 47 48  1  0
 48 49  1  0
 49 50  1  0
 50 51  1  0
 50 54  1  0
 51 52  1  0
 52 47  1  0
 53 46  2  0
 55 56  1  0
 56 57  2  0
 56 58  1  0
 58 59  1  0
 59 60  1  0
 60 61  2  0
 60 62  1  0
  3 63  1  0
  9 64  1  0
 12 65  1  0
 16 66  1  0
 17 67  1  0
 18 68  1  0
 20 69  1  0
 21 70  1  0
 21 71  1  0
 22 72  1  0
 22 73  1  0
 24 74  1  0
 24 75  1  0
 25 76  1  0
 25 77  1  0
 27 78  1  0
 27 79  1  0
 27 80  1  0
 30 81  1  0
 36 82  1  0
 39 83  1  0
 43 84  1  0
 44 85  1  0
 45 86  1  0
 47 87  1  0
 48 88  1  0
 48 89  1  0
 49 90  1  0
 49 91  1  0
 51 92  1  0
 51 93  1  0
 52 94  1  0
 52 95  1  0
 54 96  1  0
 54 97  1  0
 54 98  1  0
 55 99  1  0
 58100  1  0
 58101  1  0
 59102  1  0
 59103  1  0
 62104  1  0
M  END
$$$$
