
     RDKit          3D

104107  0  0  0  0  0  0  0  0999 V2000
    5.0605   -3.8132    1.7724 C   0  0  0  0  0  0  0  0  0  0  0  0
    5.5046   -4.7308    2.6381 F   0  0  0  0  0  0  0  0  0  0  0  0
    5.8757   -3.4031    0.7302 C   0  0  0  0  0  0  0  0  0  0  0  0
    5.4048   -2.4521   -0.1719 C   0  0  0  0  0  0  0  0  0  0  0  0
    6.2320   -2.0933   -1.1647 F   0  0  0  0  0  0  0  0  0  0  0  0
    4.1251   -1.8943   -0.0455 C   0  0  0  0  0  0  0  0  0  0  0  0
    4.4528   -0.4355   -1.8588 O   0  0  0  0  0  0  0  0  0  0  0  0
    3.6614   -0.8688   -1.0288 C   0  0  0  0  0  0  0  0  0  0  0  0
    2.3451   -0.4766   -0.9290 N   0  0  0  0  0  0  0  0  0  0  0  0
    3.3309   -2.3309    1.0210 C   0  0  0  0  0  0  0  0  0  0  0  0
    2.0932   -1.8455    1.2069 F   0  0  0  0  0  0  0  0  0  0  0  0
    3.7874   -3.2871    1.9272 C   0  0  0  0  0  0  0  0  0  0  0  0
    0.3589    0.5833   -1.3439 N   0  0  0  0  0  0  0  0  0  0  0  0
   -0.4109    1.4483   -2.0524 C   0  0  0  0  0  0  0  0  0  0  0  0
    1.6480    0.4422   -1.7180 C   0  0  0  0  0  0  0  0  0  0  0  0
    2.1945    1.1420   -2.7847 C   0  0  0  0  0  0  0  0  0  0  0  0
    1.3873    2.0278   -3.4977 C   0  0  0  0  0  0  0  0  0  0  0  0
    0.0564    2.1826   -3.1311 C   0  0  0  0  0  0  0  0  0  0  0  0
   -1.8395    1.5866   -1.6268 C   0  0  0  0  0  0  0  0  0  0  0  0
   -2.3076    0.7626   -0.4267 C   0  0  0  0  0  0  0  0  0  0  0  0
   -3.8253    0.5062   -0.4767 C   0  0  0  0  0  0  0  0  0  0  0  0
   -4.5886    1.5159    0.3813 C   0  0  0  0  0  0  0  0  0  0  0  0
   -4.2045    1.4741    1.8004 N   0  0  0  0  0  0  0  0  0  0  0  0
   -2.8083    1.0758    2.0261 C   0  0  0  0  0  0  0  0  0  0  0  0
   -1.8913    1.4703    0.8714 C   0  0  0  0  0  0  0  0  0  0  0  0
   -2.5871    2.3566   -2.2305 O   0  0  0  0  0  0  0  0  0  0  0  0
   -5.1149    0.6331    2.5853 C   0  0  0  0  0  0  0  0  0  0  0  0
    6.3190    0.1420   -2.8047 C   0  0  0  0  0  0  0  0  0  0  0  0
    7.1798    0.6647   -3.6850 F   0  0  0  0  0  0  0  0  0  0  0  0
    5.0228    0.6272   -2.7449 C   0  0  0  0  0  0  0  0  0  0  0  0
    4.1340    0.0773   -1.8231 C   0  0  0  0  0  0  0  0  0  0  0  0
    2.8850    0.5676   -1.8010 F   0  0  0  0  0  0  0  0  0  0  0  0
    4.5172   -0.9499   -0.9536 C   0  0  0  0  0  0  0  0  0  0  0  0
    3.9140   -2.5668    0.6361 O   0  0  0  0  0  0  0  0  0  0  0  0
    3.5816   -1.5496    0.0426 C   0  0  0  0  0  0  0  0  0  0  0  0
    2.3871   -0.8894    0.2324 N   0  0  0  0  0  0  0  0  0  0  0  0
    5.8379   -1.4086   -1.0371 C   0  0  0  0  0  0  0  0  0  0  0  0
    6.2956   -2.3743   -0.2288 F   0  0  0  0  0  0  0  0  0  0  0  0
    6.7380   -0.8699   -1.9560 C   0  0  0  0  0  0  0  0  0  0  0  0
    0.3078   -0.3563    1.0299 N   0  0  0  0  0  0  0  0  0  0  0  0
   -0.7364   -0.5568    1.8757 C   0  0  0  0  0  0  0  0  0  0  0  0
    1.3587   -1.1962    1.1266 C   0  0  0  0  0  0  0  0  0  0  0  0
    1.3925   -2.2473    2.0336 C   0  0  0  0  0  0  0  0  0  0  0  0
    0.3086   -2.4363    2.8901 C   0  0  0  0  0  0  0  0  0  0  0  0
   -0.7745   -1.5698    2.8222 C   0  0  0  0  0  0  0  0  0  0  0  0
   -1.8924    0.3860    1.7637 C   0  0  0  0  0  0  0  0  0  0  0  0
   -1.9362    1.3208    0.5466 C   0  0  0  0  0  0  0  0  0  0  0  0
   -2.2371    0.5395   -0.7364 C   0  0  0  0  0  0  0  0  0  0  0  0
   -3.6849    0.0302   -0.7804 C   0  0  0  0  0  0  0  0  0  0  0  0
   -4.6500    0.9321   -0.1434 N   0  0  0  0  0  0  0  0  0  0  0  0
   -4.2024    2.3221   -0.1430 C   0  0  0  0  0  0  0  0  0  0  0  0
   -2.9461    2.4729    0.7224 C   0  0  0  0  0  0  0  0  0  0  0  0
   -2.7449    0.3832    2.6510 O   0  0  0  0  0  0  0  0  0  0  0  0
   -5.9806    0.7862   -0.7189 C   0  0  0  0  0  0  0  0  0  0  0  0
    2.3587    1.1486   -0.7837 O   0  0  0  0  0  0  0  0  0  0  0  0
    1.3041    0.7371   -0.0587 C   0  0  0  0  0  0  0  0  0  0  0  0
    0.9624    1.3394    0.9434 O   0  0  0  0  0  0  0  0  0  0  0  0
    0.6691   -0.4904   -0.6510 C   0  0  0  0  0  0  0  0  0  0  0  0
   -0.3919   -1.0732    0.2719 C   0  0  0  0  0  0  0  0  0  0  0  0
   -1.5958   -0.1907    0.4473 C   0  0  0  0  0  0  0  0  0  0  0  0
   -2.2923   -0.1341    1.4456 O   0  0  0  0  0  0  0  0  0  0  0  0
   -1.9412    0.4970   -0.6586 O   0  0  0  0  0  0  0  0  0  0  0  0
    6.8697   -3.8211    0.6101 H   0  0  0  0  0  0  0  0  0  0  0  0
    1.7522   -0.8714   -0.2070 H   0  0  0  0  0  0  0  0  0  0  0  0
    3.1588   -3.6127    2.7488 H   0  0  0  0  0  0  0  0  0  0  0  0
    3.2309    1.0299   -3.0833 H   0  0  0  0  0  0  0  0  0  0  0  0
    1.7947    2.5859   -4.3381 H   0  0  0  0  0  0  0  0  0  0  0  0
   -0.5960    2.8590   -3.6730 H   0  0  0  0  0  0  0  0  0  0  0  0
   -1.8312   -0.2241   -0.4859 H   0  0  0  0  0  0  0  0  0  0  0  0
   -4.0273   -0.5063   -0.1069 H   0  0  0  0  0  0  0  0  0  0  0  0
   -4.2040    0.5290   -1.5057 H   0  0  0  0  0  0  0  0  0  0  0  0
   -4.3891    2.5284    0.0062 H   0  0  0  0  0  0  0  0  0  0  0  0
   -5.6684    1.3690    0.2604 H   0  0  0  0  0  0  0  0  0  0  0  0
   -2.7259   -0.0125    2.1673 H   0  0  0  0  0  0  0  0  0  0  0  0
   -2.4512    1.5474    2.9495 H   0  0  0  0  0  0  0  0  0  0  0  0
   -1.9067    2.5615    0.7460 H   0  0  0  0  0  0  0  0  0  0  0  0
   -0.8562    1.2082    1.1238 H   0  0  0  0  0  0  0  0  0  0  0  0
   -5.1025   -0.4126    2.2459 H   0  0  0  0  0  0  0  0  0  0  0  0
   -4.8433    0.6577    3.6479 H   0  0  0  0  0  0  0  0  0  0  0  0
   -6.1454    1.0085    2.5212 H   0  0  0  0  0  0  0  0  0  0  0  0
    4.7064    1.4269   -3.4065 H   0  0  0  0  0  0  0  0  0  0  0  0
    2.1629   -0.0754   -0.3260 H   0  0  0  0  0  0  0  0  0  0  0  0
    7.7566   -1.2405   -2.0006 H   0  0  0  0  0  0  0  0  0  0  0  0
    2.2386   -2.9183    2.1114 H   0  0  0  0  0  0  0  0  0  0  0  0
    0.3164   -3.2518    3.6097 H   0  0  0  0  0  0  0  0  0  0  0  0
   -1.6261   -1.6901    3.4846 H   0  0  0  0  0  0  0  0  0  0  0  0
   -0.9431    1.7808    0.4745 H   0  0  0  0  0  0  0  0  0  0  0  0
   -2.0683    1.2032   -1.5957 H   0  0  0  0  0  0  0  0  0  0  0  0
   -1.5574   -0.3103   -0.8691 H   0  0  0  0  0  0  0  0  0  0  0  0
   -3.7371   -0.9391   -0.2708 H   0  0  0  0  0  0  0  0  0  0  0  0
   -3.9382   -0.1556   -1.8334 H   0  0  0  0  0  0  0  0  0  0  0  0
   -4.0061    2.6737   -1.1653 H   0  0  0  0  0  0  0  0  0  0  0  0
   -4.9750    2.9818    0.2727 H   0  0  0  0  0  0  0  0  0  0  0  0
   -2.4574    3.4133    0.4360 H   0  0  0  0  0  0  0  0  0  0  0  0
   -3.2362    2.5932    1.7714 H   0  0  0  0  0  0  0  0  0  0  0  0
   -6.3210   -0.2501   -0.6277 H   0  0  0  0  0  0  0  0  0  0  0  0
   -6.7040    1.4065   -0.1749 H   0  0  0  0  0  0  0  0  0  0  0  0
   -6.0050    1.0711   -1.7766 H   0  0  0  0  0  0  0  0  0  0  0  0
    2.6751    1.9512   -0.3222 H   0  0  0  0  0  0  0  0  0  0  0  0
    1.4514   -1.2452   -0.7891 H   0  0  0  0  0  0  0  0  0  0  0  0
    0.2537   -0.2333   -1.6317 H   0  0  0  0  0  0  0  0  0  0  0  0
   -0.7462   -2.0291   -0.1313 H   0  0  0  0  0  0  0  0  0  0  0  0
    0.0381   -1.2607    1.2648 H   0  0  0  0  0  0  0  0  0  0  0  0
   -2.7452    0.9831   -0.3841 H   0  0  0  0  0  0  0  0  0  0  0  0
  1  2  1  0
  1 12  2  0
  3  1  1  0
  3  4  2  0
  4  6  1  0
  5  4  1  0
  7  8  2  0
  8  9  1  0
  8  6  1  0
  9 15  1  0
 10 11  1  0
 10  6  2  0
 12 10  1  0
 13 14  2  0
 14 18  1  0
 15 13  1  0
 15 16  2  0
 16 17  1  0
 18 17  2  0
 19 14  1  0
 19 20  1  0
 20 21  1  0
 21 22  1  0
 22 23  1  0
 23 24  1  0
 23 27  1  0
 24 25  1  0
 25 20  1  0
 26 19  2  0
 28 29  1  0
 28 39  2  0
 30 28  1  0
 30 31  2  0
 31 33  1  0
 32 31  1  0
 34 35  2  0
 35 36  1  0
 35 33  1  0
 36 42  1  0
 37 38  1  0
 37 33  2  0
 39 37  1  0
 40 41  2  0
 41 45  1  0
 42 40  1  0
 42 43  2  0
 43 44  1  0
 45 44  2  0
 46 41  1  0
 46 47  1  0
 47 48  1  0
 48 49  1  0
 49 50  1  0
 50 51  1  0
 50 54  1  0
 51 52  1  0
 52 47  1  0
 53 46  2  0
 55 56  1  0
 56 57  2  0
 56 58  1  0
 58 59  1  0
 59 60  1  0
 60 61  2  0
 60 62  1  0
  3 63  1  0
  9 64  1  0
 12 65  1  0
 16 66  1  0
 17 67  1  0
 18 68  1  0
 20 69  1  0
 21 70  1  0
 21 71  1  0
 22 72  1  0
 22 73  1  0
 24 74  1  0
 24 75  1  0
 25 76  1  0
 25 77  1  0
 27 78  1  0
 27 79  1  0
 27 80  1  0
 30 81  1  0
 36 82  1  0
 39 83  1  0
 43 84  1  0
 44 85  1  0
 45 86  1  0
 47 87  1  0
 48 88  1  0
 48 89  1  0
 49 90  1  0
 49 91  1  0
 51 92  1  0
 51 93  1  0
 52 94  1  0
 52 95  1  0
 54 96  1  0
 54 97  1  0
 54 98  1  0
 55 99  1  0
 58100  1  0
 58101  1  0
 59102  1  0
 59103  1  0
 62104  1  0
M  END
$$$$
