
     RDKit          3D

104107  0  0  0  0  0  0  0  0999 V2000
   -6.0132    2.8283    0.2164 C   0  0  0  0  0  0  0  0  0  0  0  0
   -6.7036    3.9724    0.2868 F   0  0  0  0  0  0  0  0  0  0  0  0
   -6.6649    1.6545   -0.1256 C   0  0  0  0  0  0  0  0  0  0  0  0
   -5.9414    0.4650   -0.1999 C   0  0  0  0  0  0  0  0  0  0  0  0
   -6.6188   -0.6372   -0.5501 F   0  0  0  0  0  0  0  0  0  0  0  0
   -4.5686    0.4275    0.0775 C   0  0  0  0  0  0  0  0  0  0  0  0
   -4.4615   -1.9109   -0.1272 O   0  0  0  0  0  0  0  0  0  0  0  0
   -3.8307   -0.8703    0.0071 C   0  0  0  0  0  0  0  0  0  0  0  0
   -2.4580   -0.7973    0.0941 N   0  0  0  0  0  0  0  0  0  0  0  0
   -3.9454    1.6318    0.4256 C   0  0  0  0  0  0  0  0  0  0  0  0
   -2.6324    1.6744    0.6989 F   0  0  0  0  0  0  0  0  0  0  0  0
   -4.6553    2.8288    0.4951 C   0  0  0  0  0  0  0  0  0  0  0  0
   -0.2535   -1.4081    0.1719 N   0  0  0  0  0  0  0  0  0  0  0  0
    0.7286   -2.3440    0.1422 C   0  0  0  0  0  0  0  0  0  0  0  0
   -1.5272   -1.8372    0.0515 C   0  0  0  0  0  0  0  0  0  0  0  0
   -1.8507   -3.1787   -0.0988 C   0  0  0  0  0  0  0  0  0  0  0  0
   -0.8268   -4.1248   -0.1235 C   0  0  0  0  0  0  0  0  0  0  0  0
    0.4899   -3.7043   -0.0013 C   0  0  0  0  0  0  0  0  0  0  0  0
    2.1362   -1.8519    0.2730 C   0  0  0  0  0  0  0  0  0  0  0  0
    2.3527   -0.3532    0.4777 C   0  0  0  0  0  0  0  0  0  0  0  0
    2.2537    0.3924   -0.8622 C   0  0  0  0  0  0  0  0  0  0  0  0
    3.6197    0.8725   -1.3487 C   0  0  0  0  0  0  0  0  0  0  0  0
    4.2379    1.7968   -0.3916 N   0  0  0  0  0  0  0  0  0  0  0  0
    4.1074    1.3783    1.0103 C   0  0  0  0  0  0  0  0  0  0  0  0
    3.6886   -0.0791    1.1871 C   0  0  0  0  0  0  0  0  0  0  0  0
    3.0698   -2.6510    0.1929 O   0  0  0  0  0  0  0  0  0  0  0  0
    5.6296    2.0548   -0.7583 C   0  0  0  0  0  0  0  0  0  0  0  0
   -4.3571    2.4293    3.1452 C   0  0  0  0  0  0  0  0  0  0  0  0
   -5.0520    2.4918    4.2862 F   0  0  0  0  0  0  0  0  0  0  0  0
   -3.9401    1.1918    2.6698 C   0  0  0  0  0  0  0  0  0  0  0  0
   -3.2153    1.1302    1.4839 C   0  0  0  0  0  0  0  0  0  0  0  0
   -2.8244   -0.0770    1.0452 F   0  0  0  0  0  0  0  0  0  0  0  0
   -2.9060    2.2893    0.7661 C   0  0  0  0  0  0  0  0  0  0  0  0
   -2.4694    3.0644   -1.3869 O   0  0  0  0  0  0  0  0  0  0  0  0
   -2.1875    2.2370   -0.5305 C   0  0  0  0  0  0  0  0  0  0  0  0
   -1.2550    1.2327   -0.6561 N   0  0  0  0  0  0  0  0  0  0  0  0
   -3.3360    3.5222    1.2719 C   0  0  0  0  0  0  0  0  0  0  0  0
   -3.0312    4.6705    0.6481 F   0  0  0  0  0  0  0  0  0  0  0  0
   -4.0563    3.5996    2.4610 C   0  0  0  0  0  0  0  0  0  0  0  0
    0.3465   -0.1321   -1.5610 N   0  0  0  0  0  0  0  0  0  0  0  0
    1.1164   -0.5439   -2.5975 C   0  0  0  0  0  0  0  0  0  0  0  0
   -0.4758    0.9168   -1.7709 C   0  0  0  0  0  0  0  0  0  0  0  0
   -0.5374    1.5857   -2.9845 C   0  0  0  0  0  0  0  0  0  0  0  0
    0.2592    1.1438   -4.0391 C   0  0  0  0  0  0  0  0  0  0  0  0
    1.0948    0.0525   -3.8515 C   0  0  0  0  0  0  0  0  0  0  0  0
    2.0380   -1.6944   -2.3591 C   0  0  0  0  0  0  0  0  0  0  0  0
    2.4160   -2.1122   -0.9425 C   0  0  0  0  0  0  0  0  0  0  0  0
    3.0648   -0.9802   -0.1401 C   0  0  0  0  0  0  0  0  0  0  0  0
    3.4424   -1.4631    1.2608 C   0  0  0  0  0  0  0  0  0  0  0  0
    2.3304   -2.0756    1.9967 N   0  0  0  0  0  0  0  0  0  0  0  0
    1.7278   -3.1773    1.2343 C   0  0  0  0  0  0  0  0  0  0  0  0
    1.2752   -2.7844   -0.1758 C   0  0  0  0  0  0  0  0  0  0  0  0
    2.5147   -2.2892   -3.3303 O   0  0  0  0  0  0  0  0  0  0  0  0
    1.3413   -1.0918    2.4298 C   0  0  0  0  0  0  0  0  0  0  0  0
   -2.4767    0.2370   -0.5638 O   0  0  0  0  0  0  0  0  0  0  0  0
   -1.5277    0.1357    0.3854 C   0  0  0  0  0  0  0  0  0  0  0  0
   -1.4893    0.9189    1.3195 O   0  0  0  0  0  0  0  0  0  0  0  0
   -0.5572   -0.9736    0.1139 C   0  0  0  0  0  0  0  0  0  0  0  0
    0.6321   -0.4410   -0.6675 C   0  0  0  0  0  0  0  0  0  0  0  0
    1.5937    0.2724    0.2411 C   0  0  0  0  0  0  0  0  0  0  0  0
    1.9720   -0.1032    1.3366 O   0  0  0  0  0  0  0  0  0  0  0  0
    2.0735    1.4069   -0.3012 O   0  0  0  0  0  0  0  0  0  0  0  0
   -7.7264    1.6605   -0.3476 H   0  0  0  0  0  0  0  0  0  0  0  0
   -2.0057    0.1007    0.2197 H   0  0  0  0  0  0  0  0  0  0  0  0
   -4.1506    3.7489    0.7704 H   0  0  0  0  0  0  0  0  0  0  0  0
   -2.8757   -3.5185   -0.1937 H   0  0  0  0  0  0  0  0  0  0  0  0
   -1.0592   -5.1799   -0.2396 H   0  0  0  0  0  0  0  0  0  0  0  0
    1.3056   -4.4202   -0.0198 H   0  0  0  0  0  0  0  0  0  0  0  0
    1.5583    0.0094    1.1428 H   0  0  0  0  0  0  0  0  0  0  0  0
    1.5925    1.2602   -0.7376 H   0  0  0  0  0  0  0  0  0  0  0  0
    1.7972   -0.2338   -1.6383 H   0  0  0  0  0  0  0  0  0  0  0  0
    3.4906    1.3837   -2.3093 H   0  0  0  0  0  0  0  0  0  0  0  0
    4.2599    0.0002   -1.5373 H   0  0  0  0  0  0  0  0  0  0  0  0
    5.0259    1.5712    1.5794 H   0  0  0  0  0  0  0  0  0  0  0  0
    3.3411    2.0156    1.4699 H   0  0  0  0  0  0  0  0  0  0  0  0
    4.4887   -0.7287    0.8114 H   0  0  0  0  0  0  0  0  0  0  0  0
    3.5849   -0.3116    2.2548 H   0  0  0  0  0  0  0  0  0  0  0  0
    6.0594    2.8381   -0.1231 H   0  0  0  0  0  0  0  0  0  0  0  0
    6.2527    1.1576   -0.6675 H   0  0  0  0  0  0  0  0  0  0  0  0
    5.6988    2.4173   -1.7906 H   0  0  0  0  0  0  0  0  0  0  0  0
   -4.1826    0.2853    3.2167 H   0  0  0  0  0  0  0  0  0  0  0  0
   -1.1063    0.5833    0.1071 H   0  0  0  0  0  0  0  0  0  0  0  0
   -4.3790    4.5643    2.8446 H   0  0  0  0  0  0  0  0  0  0  0  0
   -1.1915    2.4338   -3.1460 H   0  0  0  0  0  0  0  0  0  0  0  0
    0.2188    1.6523   -4.9994 H   0  0  0  0  0  0  0  0  0  0  0  0
    1.7216   -0.3143   -4.6597 H   0  0  0  0  0  0  0  0  0  0  0  0
    3.1958   -2.8795   -1.0749 H   0  0  0  0  0  0  0  0  0  0  0  0
    2.4046   -0.1099   -0.0563 H   0  0  0  0  0  0  0  0  0  0  0  0
    3.9661   -0.6278   -0.6570 H   0  0  0  0  0  0  0  0  0  0  0  0
    3.8663   -0.6312    1.8384 H   0  0  0  0  0  0  0  0  0  0  0  0
    4.2521   -2.2003    1.1801 H   0  0  0  0  0  0  0  0  0  0  0  0
    2.4661   -3.9865    1.1567 H   0  0  0  0  0  0  0  0  0  0  0  0
    0.8846   -3.6048    1.7894 H   0  0  0  0  0  0  0  0  0  0  0  0
    0.9492   -3.6816   -0.7186 H   0  0  0  0  0  0  0  0  0  0  0  0
    0.3943   -2.1366   -0.1077 H   0  0  0  0  0  0  0  0  0  0  0  0
    0.5890   -1.5692    3.0682 H   0  0  0  0  0  0  0  0  0  0  0  0
    0.8148   -0.6046    1.6025 H   0  0  0  0  0  0  0  0  0  0  0  0
    1.8120   -0.3093    3.0375 H   0  0  0  0  0  0  0  0  0  0  0  0
   -3.0268    0.9920   -0.2675 H   0  0  0  0  0  0  0  0  0  0  0  0
   -0.2769   -1.4271    1.0714 H   0  0  0  0  0  0  0  0  0  0  0  0
   -1.0717   -1.7537   -0.4594 H   0  0  0  0  0  0  0  0  0  0  0  0
    0.2999    0.2378   -1.4628 H   0  0  0  0  0  0  0  0  0  0  0  0
    1.1836   -1.2635   -1.1364 H   0  0  0  0  0  0  0  0  0  0  0  0
    2.6716    1.7615    0.3908 H   0  0  0  0  0  0  0  0  0  0  0  0
  1  2  1  0
  1 12  2  0
  3  1  1  0
  3  4  2  0
  4  6  1  0
  5  4  1  0
  7  8  2  0
  8  9  1  0
  8  6  1  0
  9 15  1  0
 10 11  1  0
 10  6  2  0
 12 10  1  0
 13 14  2  0
 14 18  1  0
 15 13  1  0
 15 16  2  0
 16 17  1  0
 18 17  2  0
 19 14  1  0
 19 20  1  0
 20 21  1  0
 21 22  1  0
 22 23  1  0
 23 24  1  0
 23 27  1  0
 24 25  1  0
 25 20  1  0
 26 19  2  0
 28 29  1  0
 28 39  2  0
 30 28  1  0
 30 31  2  0
 31 33  1  0
 32 31  1  0
 34 35  2  0
 35 36  1  0
 35 33  1  0
 36 42  1  0
 37 38  1  0
 37 33  2  0
 39 37  1  0
 40 41  2  0
 41 45  1  0
 42 40  1  0
 42 43  2  0
 43 44  1  0
 45 44  2  0
 46 41  1  0
 46 47  1  0
 47 48  1  0
 48 49  1  0
 49 50  1  0
 50 51  1  0
 50 54  1  0
 51 52  1  0
 52 47  1  0
 53 46  2  0
 55 56  1  0
 56 57  2  0
 56 58  1  0
 58 59  1  0
 59 60  1  0
 60 61  2  0
 60 62  1  0
  3 63  1  0
  9 64  1  0
 12 65  1  0
 16 66  1  0
 17 67  1  0
 18 68  1  0
 20 69  1  0
 21 70  1  0
 21 71  1  0
 22 72  1  0
 22 73  1  0
 24 74  1  0
 24 75  1  0
 25 76  1  0
 25 77  1  0
 27 78  1  0
 27 79  1  0
 27 80  1  0
 30 81  1  0
 36 82  1  0
 39 83  1  0
 43 84  1  0
 44 85  1  0
 45 86  1  0
 47 87  1  0
 48 88  1  0
 48 89  1  0
 49 90  1  0
 49 91  1  0
 51 92  1  0
 51 93  1  0
 52 94  1  0
 52 95  1  0
 54 96  1  0
 54 97  1  0
 54 98  1  0
 55 99  1  0
 58100  1  0
 58101  1  0
 59102  1  0
 59103  1  0
 62104  1  0
M  END
$$$$
