
     RDKit          3D

104107  0  0  0  0  0  0  0  0999 V2000
    6.0224    0.5635   -2.5691 C   0  0  0  0  0  0  0  0  0  0  0  0
    6.7439    0.9888   -3.6128 F   0  0  0  0  0  0  0  0  0  0  0  0
    6.3254   -0.6568   -1.9765 C   0  0  0  0  0  0  0  0  0  0  0  0
    5.5723   -1.0916   -0.8866 C   0  0  0  0  0  0  0  0  0  0  0  0
    5.8627   -2.2910   -0.3653 F   0  0  0  0  0  0  0  0  0  0  0  0
    4.5188   -0.3205   -0.3864 C   0  0  0  0  0  0  0  0  0  0  0  0
    4.3582   -1.3916    1.6728 O   0  0  0  0  0  0  0  0  0  0  0  0
    3.7544   -0.7923    0.7919 C   0  0  0  0  0  0  0  0  0  0  0  0
    2.4053   -0.5121    0.7784 N   0  0  0  0  0  0  0  0  0  0  0  0
    4.2358    0.9008   -1.0051 C   0  0  0  0  0  0  0  0  0  0  0  0
    3.2373    1.6772   -0.5605 F   0  0  0  0  0  0  0  0  0  0  0  0
    4.9817    1.3500   -2.0933 C   0  0  0  0  0  0  0  0  0  0  0  0
    0.2036   -0.4200    1.4128 N   0  0  0  0  0  0  0  0  0  0  0  0
   -0.7862   -0.6499    2.3128 C   0  0  0  0  0  0  0  0  0  0  0  0
    1.4487   -0.8120    1.7509 C   0  0  0  0  0  0  0  0  0  0  0  0
    1.7351   -1.4370    2.9562 C   0  0  0  0  0  0  0  0  0  0  0  0
    0.7054   -1.6505    3.8693 C   0  0  0  0  0  0  0  0  0  0  0  0
   -0.5808   -1.2440    3.5474 C   0  0  0  0  0  0  0  0  0  0  0  0
   -2.1643   -0.2497    1.9243 C   0  0  0  0  0  0  0  0  0  0  0  0
   -2.4627   -0.0434    0.4457 C   0  0  0  0  0  0  0  0  0  0  0  0
   -3.7844   -0.7305    0.0973 C   0  0  0  0  0  0  0  0  0  0  0  0
   -4.1749   -0.4845   -1.3617 C   0  0  0  0  0  0  0  0  0  0  0  0
   -3.8529    0.8639   -1.8516 N   0  0  0  0  0  0  0  0  0  0  0  0
   -3.7012    1.8375   -0.7724 C   0  0  0  0  0  0  0  0  0  0  0  0
   -2.5088    1.4554    0.1124 C   0  0  0  0  0  0  0  0  0  0  0  0
   -3.0236   -0.1009    2.7945 O   0  0  0  0  0  0  0  0  0  0  0  0
   -4.8329    1.3048   -2.8463 C   0  0  0  0  0  0  0  0  0  0  0  0
   -5.8839    1.2726    2.4245 C   0  0  0  0  0  0  0  0  0  0  0  0
   -6.5847    2.0167    3.2881 F   0  0  0  0  0  0  0  0  0  0  0  0
   -4.5815    1.6312    2.1159 C   0  0  0  0  0  0  0  0  0  0  0  0
   -3.8598    0.8553    1.2113 C   0  0  0  0  0  0  0  0  0  0  0  0
   -2.6037    1.2391    0.9356 F   0  0  0  0  0  0  0  0  0  0  0  0
   -4.4127   -0.2844    0.6165 C   0  0  0  0  0  0  0  0  0  0  0  0
   -4.2620   -1.9864   -0.9898 O   0  0  0  0  0  0  0  0  0  0  0  0
   -3.6601   -1.1257   -0.3610 C   0  0  0  0  0  0  0  0  0  0  0  0
   -2.3131   -0.8634   -0.4914 N   0  0  0  0  0  0  0  0  0  0  0  0
   -5.7285   -0.6233    0.9640 C   0  0  0  0  0  0  0  0  0  0  0  0
   -6.3306   -1.7079    0.4571 F   0  0  0  0  0  0  0  0  0  0  0  0
   -6.4671    0.1500    1.8582 C   0  0  0  0  0  0  0  0  0  0  0  0
   -0.1461   -0.9561   -1.2415 N   0  0  0  0  0  0  0  0  0  0  0  0
    0.8240   -1.5002   -2.0191 C   0  0  0  0  0  0  0  0  0  0  0  0
   -1.3831   -1.4958   -1.3209 C   0  0  0  0  0  0  0  0  0  0  0  0
   -1.6772   -2.5725   -2.1456 C   0  0  0  0  0  0  0  0  0  0  0  0
   -0.6665   -3.1176   -2.9331 C   0  0  0  0  0  0  0  0  0  0  0  0
    0.6098   -2.5756   -2.8705 C   0  0  0  0  0  0  0  0  0  0  0  0
    2.1855   -0.8854   -1.9453 C   0  0  0  0  0  0  0  0  0  0  0  0
    2.3813    0.3279   -1.0387 C   0  0  0  0  0  0  0  0  0  0  0  0
    3.5261    1.2117   -1.5503 C   0  0  0  0  0  0  0  0  0  0  0  0
    3.8115    2.3610   -0.5814 C   0  0  0  0  0  0  0  0  0  0  0  0
    4.0678    1.9238    0.7963 N   0  0  0  0  0  0  0  0  0  0  0  0
    2.9933    1.0636    1.2984 C   0  0  0  0  0  0  0  0  0  0  0  0
    2.6698   -0.1278    0.3950 C   0  0  0  0  0  0  0  0  0  0  0  0
    3.1092   -1.3754   -2.5966 O   0  0  0  0  0  0  0  0  0  0  0  0
    5.3831    1.3052    0.9437 C   0  0  0  0  0  0  0  0  0  0  0  0
    1.5680    0.5480   -1.1404 O   0  0  0  0  0  0  0  0  0  0  0  0
    1.5541    0.0745    0.1194 C   0  0  0  0  0  0  0  0  0  0  0  0
    2.3980    0.4386    0.9231 O   0  0  0  0  0  0  0  0  0  0  0  0
    0.4995   -0.9713    0.3619 C   0  0  0  0  0  0  0  0  0  0  0  0
   -0.7958   -0.7229   -0.4045 C   0  0  0  0  0  0  0  0  0  0  0  0
   -1.4469    0.5958   -0.0941 C   0  0  0  0  0  0  0  0  0  0  0  0
   -2.1614    1.2310   -0.8510 O   0  0  0  0  0  0  0  0  0  0  0  0
   -1.2603    1.0132    1.1680 O   0  0  0  0  0  0  0  0  0  0  0  0
    7.1320   -1.2699   -2.3619 H   0  0  0  0  0  0  0  0  0  0  0  0
    2.0032   -0.0037    0.0003 H   0  0  0  0  0  0  0  0  0  0  0  0
    4.7612    2.3022   -2.5604 H   0  0  0  0  0  0  0  0  0  0  0  0
    2.7356   -1.7575    3.2187 H   0  0  0  0  0  0  0  0  0  0  0  0
    0.9097   -2.1327    4.8192 H   0  0  0  0  0  0  0  0  0  0  0  0
   -1.4012   -1.4013    4.2397 H   0  0  0  0  0  0  0  0  0  0  0  0
   -1.6840   -0.5200   -0.1649 H   0  0  0  0  0  0  0  0  0  0  0  0
   -3.7095   -1.8098    0.2822 H   0  0  0  0  0  0  0  0  0  0  0  0
   -4.5905   -0.3663    0.7491 H   0  0  0  0  0  0  0  0  0  0  0  0
   -5.2464   -0.7104   -1.4618 H   0  0  0  0  0  0  0  0  0  0  0  0
   -3.6462   -1.2036   -2.0012 H   0  0  0  0  0  0  0  0  0  0  0  0
   -3.5133    2.8407   -1.1807 H   0  0  0  0  0  0  0  0  0  0  0  0
   -4.6159    1.9071   -0.1706 H   0  0  0  0  0  0  0  0  0  0  0  0
   -2.5303    2.0720    1.0203 H   0  0  0  0  0  0  0  0  0  0  0  0
   -1.5760    1.7224   -0.4044 H   0  0  0  0  0  0  0  0  0  0  0  0
   -5.8316    1.4382   -2.4053 H   0  0  0  0  0  0  0  0  0  0  0  0
   -4.5244    2.2524   -3.3064 H   0  0  0  0  0  0  0  0  0  0  0  0
   -4.9109    0.5764   -3.6622 H   0  0  0  0  0  0  0  0  0  0  0  0
   -4.1360    2.5131    2.5633 H   0  0  0  0  0  0  0  0  0  0  0  0
   -1.8942   -0.1037    0.0307 H   0  0  0  0  0  0  0  0  0  0  0  0
   -7.4835   -0.1307    2.1140 H   0  0  0  0  0  0  0  0  0  0  0  0
   -2.6687   -3.0067   -2.2022 H   0  0  0  0  0  0  0  0  0  0  0  0
   -0.8812   -3.9552   -3.5926 H   0  0  0  0  0  0  0  0  0  0  0  0
    1.4128   -2.9843   -3.4763 H   0  0  0  0  0  0  0  0  0  0  0  0
    1.4709    0.9393   -1.0591 H   0  0  0  0  0  0  0  0  0  0  0  0
    3.2665    1.6190   -2.5353 H   0  0  0  0  0  0  0  0  0  0  0  0
    4.4383    0.6189   -1.6992 H   0  0  0  0  0  0  0  0  0  0  0  0
    4.6538    2.9612   -0.9538 H   0  0  0  0  0  0  0  0  0  0  0  0
    2.9482    3.0434   -0.5728 H   0  0  0  0  0  0  0  0  0  0  0  0
    3.2295    0.7103    2.3100 H   0  0  0  0  0  0  0  0  0  0  0  0
    2.0894    1.6764    1.4041 H   0  0  0  0  0  0  0  0  0  0  0  0
    3.4993   -0.8466    0.4036 H   0  0  0  0  0  0  0  0  0  0  0  0
    1.8026   -0.6639    0.8020 H   0  0  0  0  0  0  0  0  0  0  0  0
    5.4960    0.3768    0.3762 H   0  0  0  0  0  0  0  0  0  0  0  0
    6.1702    1.9924    0.6162 H   0  0  0  0  0  0  0  0  0  0  0  0
    5.5855    1.0795    1.9976 H   0  0  0  0  0  0  0  0  0  0  0  0
    2.3347    1.1608   -1.1543 H   0  0  0  0  0  0  0  0  0  0  0  0
    0.9220   -1.9405    0.0683 H   0  0  0  0  0  0  0  0  0  0  0  0
    0.2965   -1.0034    1.4404 H   0  0  0  0  0  0  0  0  0  0  0  0
   -0.6082   -0.7521   -1.4832 H   0  0  0  0  0  0  0  0  0  0  0  0
   -1.5180   -1.5123   -0.1721 H   0  0  0  0  0  0  0  0  0  0  0  0
   -1.7821    1.8407    1.2186 H   0  0  0  0  0  0  0  0  0  0  0  0
  1  2  1  0
  1 12  2  0
  3  1  1  0
  3  4  2  0
  4  6  1  0
  5  4  1  0
  7  8  2  0
  8  9  1  0
  8  6  1  0
  9 15  1  0
 10 11  1  0
 10  6  2  0
 12 10  1  0
 13 14  2  0
 14 18  1  0
 15 13  1  0
 15 16  2  0
 16 17  1  0
 18 17  2  0
 19 14  1  0
 19 20  1  0
 20 21  1  0
 21 22  1  0
 22 23  1  0
 23 24  1  0
 23 27  1  0
 24 25  1  0
 25 20  1  0
 26 19  2  0
 28 29  1  0
 28 39  2  0
 30 28  1  0
 30 31  2  0
 31 33  1  0
 32 31  1  0
 34 35  2  0
 35 36  1  0
 35 33  1  0
 36 42  1  0
 37 38  1  0
 37 33  2  0
 39 37  1  0
 40 41  2  0
 41 45  1  0
 42 40  1  0
 42 43  2  0
 43 44  1  0
 45 44  2  0
 46 41  1  0
 46 47  1  0
 47 48  1  0
 48 49  1  0
 49 50  1  0
 50 51  1  0
 50 54  1  0
 51 52  1  0
 52 47  1  0
 53 46  2  0
 55 56  1  0
 56 57  2  0
 56 58  1  0
 58 59  1  0
 59 60  1  0
 60 61  2  0
 60 62  1  0
  3 63  1  0
  9 64  1  0
 12 65  1  0
 16 66  1  0
 17 67  1  0
 18 68  1  0
 20 69  1  0
 21 70  1  0
 21 71  1  0
 22 72  1  0
 22 73  1  0
 24 74  1  0
 24 75  1  0
 25 76  1  0
 25 77  1  0
 27 78  1  0
 27 79  1  0
 27 80  1  0
 30 81  1  0
 36 82  1  0
 39 83  1  0
 43 84  1  0
 44 85  1  0
 45 86  1  0
 47 87  1  0
 48 88  1  0
 48 89  1  0
 49 90  1  0
 49 91  1  0
 51 92  1  0
 51 93  1  0
 52 94  1  0
 52 95  1  0
 54 96  1  0
 54 97  1  0
 54 98  1  0
 55 99  1  0
 58100  1  0
 58101  1  0
 59102  1  0
 59103  1  0
 62104  1  0
M  END
$$$$
