
     RDKit          3D

104107  0  0  0  0  0  0  0  0999 V2000
    4.8028    3.5172   -2.5233 C   0  0  0  0  0  0  0  0  0  0  0  0
    5.1440    4.6465   -3.1548 F   0  0  0  0  0  0  0  0  0  0  0  0
    5.3933    3.2134   -1.3038 C   0  0  0  0  0  0  0  0  0  0  0  0
    5.0302    2.0402   -0.6509 C   0  0  0  0  0  0  0  0  0  0  0  0
    5.5928    1.7838    0.5408 F   0  0  0  0  0  0  0  0  0  0  0  0
    4.0784    1.1782   -1.1979 C   0  0  0  0  0  0  0  0  0  0  0  0
    4.6636   -0.7476   -0.0519 O   0  0  0  0  0  0  0  0  0  0  0  0
    3.7439   -0.0814   -0.5063 C   0  0  0  0  0  0  0  0  0  0  0  0
    2.4055   -0.3813   -0.4370 N   0  0  0  0  0  0  0  0  0  0  0  0
    3.4966    1.5074   -2.4209 C   0  0  0  0  0  0  0  0  0  0  0  0
    2.5828    0.7040   -2.9857 F   0  0  0  0  0  0  0  0  0  0  0  0
    3.8552    2.6757   -3.0912 C   0  0  0  0  0  0  0  0  0  0  0  0
    0.4577   -1.4971    0.0478 N   0  0  0  0  0  0  0  0  0  0  0  0
   -0.2048   -2.5760    0.5392 C   0  0  0  0  0  0  0  0  0  0  0  0
    1.8068   -1.5191    0.1097 C   0  0  0  0  0  0  0  0  0  0  0  0
    2.5129   -2.5846    0.6541 C   0  0  0  0  0  0  0  0  0  0  0  0
    1.8111   -3.6865    1.1373 C   0  0  0  0  0  0  0  0  0  0  0  0
    0.4254   -3.6910    1.0754 C   0  0  0  0  0  0  0  0  0  0  0  0
   -1.6982   -2.5342    0.4921 C   0  0  0  0  0  0  0  0  0  0  0  0
   -2.3751   -1.1712    0.3239 C   0  0  0  0  0  0  0  0  0  0  0  0
   -3.8746   -1.3303    0.0351 C   0  0  0  0  0  0  0  0  0  0  0  0
   -4.5865    0.0210   -0.0004 C   0  0  0  0  0  0  0  0  0  0  0  0
   -4.3771    0.7709    1.2438 N   0  0  0  0  0  0  0  0  0  0  0  0
   -2.9520    1.0017    1.4921 C   0  0  0  0  0  0  0  0  0  0  0  0
   -2.1939   -0.3221    1.5880 C   0  0  0  0  0  0  0  0  0  0  0  0
   -2.3338   -3.5827    0.5932 O   0  0  0  0  0  0  0  0  0  0  0  0
   -5.1121    2.0342    1.2132 C   0  0  0  0  0  0  0  0  0  0  0  0
    6.2511    1.2455    1.8838 C   0  0  0  0  0  0  0  0  0  0  0  0
    7.0532    1.9525    2.6889 F   0  0  0  0  0  0  0  0  0  0  0  0
    6.5958   -0.0555    1.5458 C   0  0  0  0  0  0  0  0  0  0  0  0
    5.7542   -0.7842    0.7073 C   0  0  0  0  0  0  0  0  0  0  0  0
    6.0925   -2.0496    0.4233 F   0  0  0  0  0  0  0  0  0  0  0  0
    4.5761   -0.2284    0.2074 C   0  0  0  0  0  0  0  0  0  0  0  0
    4.2567   -1.7218   -1.5459 O   0  0  0  0  0  0  0  0  0  0  0  0
    3.7160   -1.0200   -0.7005 C   0  0  0  0  0  0  0  0  0  0  0  0
    2.3621   -0.8828   -0.5022 N   0  0  0  0  0  0  0  0  0  0  0  0
    4.2528    1.0812    0.5661 C   0  0  0  0  0  0  0  0  0  0  0  0
    3.1356    1.6638    0.1079 F   0  0  0  0  0  0  0  0  0  0  0  0
    5.0830    1.8232    1.4034 C   0  0  0  0  0  0  0  0  0  0  0  0
    0.1011   -1.1278   -0.7616 N   0  0  0  0  0  0  0  0  0  0  0  0
   -0.9744   -1.6687   -1.3888 C   0  0  0  0  0  0  0  0  0  0  0  0
    1.3216   -1.5030   -1.1951 C   0  0  0  0  0  0  0  0  0  0  0  0
    1.5056   -2.4149   -2.2280 C   0  0  0  0  0  0  0  0  0  0  0  0
    0.3872   -2.9529   -2.8596 C   0  0  0  0  0  0  0  0  0  0  0  0
   -0.8797   -2.5727   -2.4382 C   0  0  0  0  0  0  0  0  0  0  0  0
   -2.3206   -1.2532   -0.8932 C   0  0  0  0  0  0  0  0  0  0  0  0
   -2.3961   -0.3828    0.3614 C   0  0  0  0  0  0  0  0  0  0  0  0
   -3.7174   -0.6266    1.1096 C   0  0  0  0  0  0  0  0  0  0  0  0
   -4.7674    0.4058    0.7124 C   0  0  0  0  0  0  0  0  0  0  0  0
   -4.3600    1.7652    1.0941 N   0  0  0  0  0  0  0  0  0  0  0  0
   -2.9216    2.0216    0.9652 C   0  0  0  0  0  0  0  0  0  0  0  0
   -2.2156    1.0931   -0.0200 C   0  0  0  0  0  0  0  0  0  0  0  0
   -3.3275   -1.6011   -1.5076 O   0  0  0  0  0  0  0  0  0  0  0  0
   -5.1649    2.7576    0.3889 C   0  0  0  0  0  0  0  0  0  0  0  0
   -1.5939    0.8590   -0.8753 O   0  0  0  0  0  0  0  0  0  0  0  0
   -1.6819    0.0026    0.1562 C   0  0  0  0  0  0  0  0  0  0  0  0
   -2.6278    0.0569    0.9244 O   0  0  0  0  0  0  0  0  0  0  0  0
   -0.5871   -1.0295    0.2047 C   0  0  0  0  0  0  0  0  0  0  0  0
    0.6934   -0.6183   -0.5118 C   0  0  0  0  0  0  0  0  0  0  0  0
    1.3537    0.5502    0.1638 C   0  0  0  0  0  0  0  0  0  0  0  0
    0.9877    1.1267    1.1731 O   0  0  0  0  0  0  0  0  0  0  0  0
    2.4803    0.9290   -0.4715 O   0  0  0  0  0  0  0  0  0  0  0  0
    6.1278    3.8802   -0.8640 H   0  0  0  0  0  0  0  0  0  0  0  0
    1.7248    0.2470   -0.8475 H   0  0  0  0  0  0  0  0  0  0  0  0
    3.4137    2.9178   -4.0502 H   0  0  0  0  0  0  0  0  0  0  0  0
    3.5952   -2.6002    0.7019 H   0  0  0  0  0  0  0  0  0  0  0  0
    2.3483   -4.5308    1.5624 H   0  0  0  0  0  0  0  0  0  0  0  0
   -0.1480   -4.5329    1.4500 H   0  0  0  0  0  0  0  0  0  0  0  0
   -1.9200   -0.6698   -0.5391 H   0  0  0  0  0  0  0  0  0  0  0  0
   -4.0195   -1.8447   -0.9225 H   0  0  0  0  0  0  0  0  0  0  0  0
   -4.3471   -1.9655    0.7969 H   0  0  0  0  0  0  0  0  0  0  0  0
   -4.2348    0.5994   -0.8655 H   0  0  0  0  0  0  0  0  0  0  0  0
   -5.6589   -0.1638   -0.1471 H   0  0  0  0  0  0  0  0  0  0  0  0
   -2.5091    1.6259    0.7061 H   0  0  0  0  0  0  0  0  0  0  0  0
   -2.8232    1.5335    2.4420 H   0  0  0  0  0  0  0  0  0  0  0  0
   -2.5511   -0.8829    2.4622 H   0  0  0  0  0  0  0  0  0  0  0  0
   -1.1345   -0.1117    1.7696 H   0  0  0  0  0  0  0  0  0  0  0  0
   -4.9875    2.5771    2.1584 H   0  0  0  0  0  0  0  0  0  0  0  0
   -4.7857    2.6816    0.3916 H   0  0  0  0  0  0  0  0  0  0  0  0
   -6.1854    1.8505    1.1032 H   0  0  0  0  0  0  0  0  0  0  0  0
    7.5060   -0.5028    1.9307 H   0  0  0  0  0  0  0  0  0  0  0  0
    2.0221   -0.2253    0.1890 H   0  0  0  0  0  0  0  0  0  0  0  0
    4.8230    2.8437    1.6694 H   0  0  0  0  0  0  0  0  0  0  0  0
    2.4920   -2.7186   -2.5639 H   0  0  0  0  0  0  0  0  0  0  0  0
    0.5106   -3.6614   -3.6729 H   0  0  0  0  0  0  0  0  0  0  0  0
   -1.7685   -2.9743   -2.9135 H   0  0  0  0  0  0  0  0  0  0  0  0
   -1.5936   -0.6847    1.0448 H   0  0  0  0  0  0  0  0  0  0  0  0
   -3.5359   -0.5569    2.1898 H   0  0  0  0  0  0  0  0  0  0  0  0
   -4.1003   -1.6390    0.9364 H   0  0  0  0  0  0  0  0  0  0  0  0
   -4.9503    0.3342   -0.3677 H   0  0  0  0  0  0  0  0  0  0  0  0
   -5.7121    0.1690    1.2163 H   0  0  0  0  0  0  0  0  0  0  0  0
   -2.4722    1.8776    1.9563 H   0  0  0  0  0  0  0  0  0  0  0  0
   -2.7126    3.0671    0.7015 H   0  0  0  0  0  0  0  0  0  0  0  0
   -1.1461    1.3355   -0.0451 H   0  0  0  0  0  0  0  0  0  0  0  0
   -2.5962    1.2858   -1.0316 H   0  0  0  0  0  0  0  0  0  0  0  0
   -4.9604    2.7662   -0.6866 H   0  0  0  0  0  0  0  0  0  0  0  0
   -6.2341    2.5625    0.5340 H   0  0  0  0  0  0  0  0  0  0  0  0
   -4.9709    3.7582    0.7882 H   0  0  0  0  0  0  0  0  0  0  0  0
   -2.3774    1.4374   -0.7674 H   0  0  0  0  0  0  0  0  0  0  0  0
   -0.3666   -1.2380    1.2596 H   0  0  0  0  0  0  0  0  0  0  0  0
   -0.9793   -1.9461   -0.2478 H   0  0  0  0  0  0  0  0  0  0  0  0
    0.4952   -0.3563   -1.5574 H   0  0  0  0  0  0  0  0  0  0  0  0
    1.3983   -1.4581   -0.4882 H   0  0  0  0  0  0  0  0  0  0  0  0
    2.8053    1.6845    0.0611 H   0  0  0  0  0  0  0  0  0  0  0  0
  1  2  1  0
  1 12  2  0
  3  1  1  0
  3  4  2  0
  4  6  1  0
  5  4  1  0
  7  8  2  0
  8  9  1  0
  8  6  1  0
  9 15  1  0
 10 11  1  0
 10  6  2  0
 12 10  1  0
 13 14  2  0
 14 18  1  0
 15 13  1  0
 15 16  2  0
 16 17  1  0
 18 17  2  0
 19 14  1  0
 19 20  1  0
 20 21  1  0
 21 22  1  0
 22 23  1  0
 23 24  1  0
 23 27  1  0
 24 25  1  0
 25 20  1  0
 26 19  2  0
 28 29  1  0
 28 39  2  0
 30 28  1  0
 30 31  2  0
 31 33  1  0
 32 31  1  0
 34 35  2  0
 35 36  1  0
 35 33  1  0
 36 42  1  0
 37 38  1  0
 37 33  2  0
 39 37  1  0
 40 41  2  0
 41 45  1  0
 42 40  1  0
 42 43  2  0
 43 44  1  0
 45 44  2  0
 46 41  1  0
 46 47  1  0
 47 48  1  0
 48 49  1  0
 49 50  1  0
 50 51  1  0
 50 54  1  0
 51 52  1  0
 52 47  1  0
 53 46  2  0
 55 56  1  0
 56 57  2  0
 56 58  1  0
 58 59  1  0
 59 60  1  0
 60 61  2  0
 60 62  1  0
  3 63  1  0
  9 64  1  0
 12 65  1  0
 16 66  1  0
 17 67  1  0
 18 68  1  0
 20 69  1  0
 21 70  1  0
 21 71  1  0
 22 72  1  0
 22 73  1  0
 24 74  1  0
 24 75  1  0
 25 76  1  0
 25 77  1  0
 27 78  1  0
 27 79  1  0
 27 80  1  0
 30 81  1  0
 36 82  1  0
 39 83  1  0
 43 84  1  0
 44 85  1  0
 45 86  1  0
 47 87  1  0
 48 88  1  0
 48 89  1  0
 49 90  1  0
 49 91  1  0
 51 92  1  0
 51 93  1  0
 52 94  1  0
 52 95  1  0
 54 96  1  0
 54 97  1  0
 54 98  1  0
 55 99  1  0
 58100  1  0
 58101  1  0
 59102  1  0
 59103  1  0
 62104  1  0
M  END
$$$$
