
     RDKit          3D

104107  0  0  0  0  0  0  0  0999 V2000
    4.7505   -0.2975    3.3813 C   0  0  0  0  0  0  0  0  0  0  0  0
    5.2541   -0.5571    4.5934 F   0  0  0  0  0  0  0  0  0  0  0  0
    5.3938   -0.7817    2.2525 C   0  0  0  0  0  0  0  0  0  0  0  0
    4.8621   -0.5087    0.9935 C   0  0  0  0  0  0  0  0  0  0  0  0
    5.4884   -1.0166   -0.0766 F   0  0  0  0  0  0  0  0  0  0  0  0
    3.6906    0.2383    0.8577 C   0  0  0  0  0  0  0  0  0  0  0  0
    3.9589    0.7703   -1.3996 O   0  0  0  0  0  0  0  0  0  0  0  0
    3.1644    0.5532   -0.4929 C   0  0  0  0  0  0  0  0  0  0  0  0
    1.7954    0.5643   -0.5967 N   0  0  0  0  0  0  0  0  0  0  0  0
    3.0594    0.7077    2.0130 C   0  0  0  0  0  0  0  0  0  0  0  0
    1.9296    1.4281    1.9352 F   0  0  0  0  0  0  0  0  0  0  0  0
    3.5804    0.4454    3.2753 C   0  0  0  0  0  0  0  0  0  0  0  0
   -0.3131    0.7283   -1.4732 N   0  0  0  0  0  0  0  0  0  0  0  0
   -1.1645    1.0047   -2.4856 C   0  0  0  0  0  0  0  0  0  0  0  0
    1.0092    0.8681   -1.7086 C   0  0  0  0  0  0  0  0  0  0  0  0
    1.5126    1.2856   -2.9318 C   0  0  0  0  0  0  0  0  0  0  0  0
    0.6179    1.5791   -3.9589 C   0  0  0  0  0  0  0  0  0  0  0  0
   -0.7461    1.4401   -3.7371 C   0  0  0  0  0  0  0  0  0  0  0  0
   -2.6228    0.8135   -2.2247 C   0  0  0  0  0  0  0  0  0  0  0  0
   -3.1085    0.0809   -0.9737 C   0  0  0  0  0  0  0  0  0  0  0  0
   -2.6937   -1.3929   -0.9625 C   0  0  0  0  0  0  0  0  0  0  0  0
   -3.0813   -2.0252    0.3728 C   0  0  0  0  0  0  0  0  0  0  0  0
   -2.4192   -1.4025    1.5269 N   0  0  0  0  0  0  0  0  0  0  0  0
   -1.9177   -0.0467    1.2781 C   0  0  0  0  0  0  0  0  0  0  0  0
   -2.7896    0.7977    0.3459 C   0  0  0  0  0  0  0  0  0  0  0  0
   -3.4385    1.2404   -3.0466 O   0  0  0  0  0  0  0  0  0  0  0  0
   -3.2694   -1.4760    2.7136 C   0  0  0  0  0  0  0  0  0  0  0  0
   -4.4960   -0.2022   -3.7893 C   0  0  0  0  0  0  0  0  0  0  0  0
   -4.9321   -0.0394   -5.0445 F   0  0  0  0  0  0  0  0  0  0  0  0
   -3.6365    0.7396   -3.2401 C   0  0  0  0  0  0  0  0  0  0  0  0
   -3.1880    0.5675   -1.9325 C   0  0  0  0  0  0  0  0  0  0  0  0
   -2.3600    1.4929   -1.4248 F   0  0  0  0  0  0  0  0  0  0  0  0
   -3.5854   -0.5331   -1.1683 C   0  0  0  0  0  0  0  0  0  0  0  0
   -3.8945   -1.2403    1.0336 O   0  0  0  0  0  0  0  0  0  0  0  0
   -3.1309   -0.7159    0.2303 C   0  0  0  0  0  0  0  0  0  0  0  0
   -1.8509   -0.2829    0.5024 N   0  0  0  0  0  0  0  0  0  0  0  0
   -4.4505   -1.4658   -1.7476 C   0  0  0  0  0  0  0  0  0  0  0  0
   -4.8427   -2.5606   -1.0798 F   0  0  0  0  0  0  0  0  0  0  0  0
   -4.9068   -1.3083   -3.0553 C   0  0  0  0  0  0  0  0  0  0  0  0
    0.0900    0.1566    1.6293 N   0  0  0  0  0  0  0  0  0  0  0  0
    0.8243    0.2275    2.7623 C   0  0  0  0  0  0  0  0  0  0  0  0
   -1.1809   -0.2856    1.7276 C   0  0  0  0  0  0  0  0  0  0  0  0
   -1.7416   -0.6814    2.9331 C   0  0  0  0  0  0  0  0  0  0  0  0
   -0.9705   -0.6009    4.0908 C   0  0  0  0  0  0  0  0  0  0  0  0
    0.3340   -0.1276    4.0105 C   0  0  0  0  0  0  0  0  0  0  0  0
    2.2300    0.7124    2.6303 C   0  0  0  0  0  0  0  0  0  0  0  0
    2.9372    0.6919    1.2747 C   0  0  0  0  0  0  0  0  0  0  0  0
    2.9359   -0.6801    0.5830 C   0  0  0  0  0  0  0  0  0  0  0  0
    2.1832   -0.6763   -0.7497 C   0  0  0  0  0  0  0  0  0  0  0  0
    2.5913    0.3772   -1.6852 N   0  0  0  0  0  0  0  0  0  0  0  0
    3.0757    1.6065   -1.0449 C   0  0  0  0  0  0  0  0  0  0  0  0
    2.4867    1.8226    0.3486 C   0  0  0  0  0  0  0  0  0  0  0  0
    2.8138    1.1252    3.6355 O   0  0  0  0  0  0  0  0  0  0  0  0
    3.5523   -0.1041   -2.6773 C   0  0  0  0  0  0  0  0  0  0  0  0
   -2.3730    1.2059   -0.3148 O   0  0  0  0  0  0  0  0  0  0  0  0
   -1.3789    0.4820    0.2322 C   0  0  0  0  0  0  0  0  0  0  0  0
   -1.2020    0.4830    1.4366 O   0  0  0  0  0  0  0  0  0  0  0  0
   -0.5944   -0.2687   -0.8061 C   0  0  0  0  0  0  0  0  0  0  0  0
    0.5323   -1.0821   -0.1807 C   0  0  0  0  0  0  0  0  0  0  0  0
    1.6090   -0.2531    0.4685 C   0  0  0  0  0  0  0  0  0  0  0  0
    2.4136   -0.6618    1.2922 O   0  0  0  0  0  0  0  0  0  0  0  0
    1.6984    1.0073    0.0013 O   0  0  0  0  0  0  0  0  0  0  0  0
    6.3032   -1.3697    2.3449 H   0  0  0  0  0  0  0  0  0  0  0  0
    1.2292    0.3371    0.2117 H   0  0  0  0  0  0  0  0  0  0  0  0
    3.0783    0.8095    4.1668 H   0  0  0  0  0  0  0  0  0  0  0  0
    2.5757    1.3953   -3.1166 H   0  0  0  0  0  0  0  0  0  0  0  0
    0.9823    1.9106   -4.9287 H   0  0  0  0  0  0  0  0  0  0  0  0
   -1.4649    1.6571   -4.5222 H   0  0  0  0  0  0  0  0  0  0  0  0
   -4.2074    0.0964   -1.0611 H   0  0  0  0  0  0  0  0  0  0  0  0
   -3.1923   -1.9208   -1.7832 H   0  0  0  0  0  0  0  0  0  0  0  0
   -1.6199   -1.5219   -1.1375 H   0  0  0  0  0  0  0  0  0  0  0  0
   -4.1744   -1.9631    0.4673 H   0  0  0  0  0  0  0  0  0  0  0  0
   -2.8281   -3.0914    0.3537 H   0  0  0  0  0  0  0  0  0  0  0  0
   -1.7514    0.4941    2.2186 H   0  0  0  0  0  0  0  0  0  0  0  0
   -0.9195   -0.1526    0.8397 H   0  0  0  0  0  0  0  0  0  0  0  0
   -2.3113    1.7683    0.1690 H   0  0  0  0  0  0  0  0  0  0  0  0
   -3.7314    1.0235    0.8619 H   0  0  0  0  0  0  0  0  0  0  0  0
   -2.7494   -1.0805    3.5941 H   0  0  0  0  0  0  0  0  0  0  0  0
   -3.5201   -2.5181    2.9357 H   0  0  0  0  0  0  0  0  0  0  0  0
   -4.2015   -0.9146    2.5895 H   0  0  0  0  0  0  0  0  0  0  0  0
   -3.3215    1.6010   -3.8210 H   0  0  0  0  0  0  0  0  0  0  0  0
   -1.2893    0.1256   -0.2354 H   0  0  0  0  0  0  0  0  0  0  0  0
   -5.5751   -2.0385   -3.4956 H   0  0  0  0  0  0  0  0  0  0  0  0
   -2.7618   -1.0377    3.0081 H   0  0  0  0  0  0  0  0  0  0  0  0
   -1.3914   -0.8986    5.0465 H   0  0  0  0  0  0  0  0  0  0  0  0
    0.9521   -0.0512    4.8996 H   0  0  0  0  0  0  0  0  0  0  0  0
    3.9909    0.8888    1.5241 H   0  0  0  0  0  0  0  0  0  0  0  0
    2.5254   -1.4602    1.2372 H   0  0  0  0  0  0  0  0  0  0  0  0
    3.9780   -0.9722    0.3893 H   0  0  0  0  0  0  0  0  0  0  0  0
    1.1127   -0.5461   -0.5640 H   0  0  0  0  0  0  0  0  0  0  0  0
    2.2620   -1.6691   -1.2106 H   0  0  0  0  0  0  0  0  0  0  0  0
    2.8192    2.4589   -1.6835 H   0  0  0  0  0  0  0  0  0  0  0  0
    4.1709    1.5983   -0.9515 H   0  0  0  0  0  0  0  0  0  0  0  0
    1.3955    1.8946    0.2841 H   0  0  0  0  0  0  0  0  0  0  0  0
    2.8281    2.7848    0.7497 H   0  0  0  0  0  0  0  0  0  0  0  0
    4.4829   -0.4488   -2.2097 H   0  0  0  0  0  0  0  0  0  0  0  0
    3.8046    0.6876   -3.3955 H   0  0  0  0  0  0  0  0  0  0  0  0
    3.1293   -0.9326   -3.2568 H   0  0  0  0  0  0  0  0  0  0  0  0
   -2.8004    1.6523    0.4457 H   0  0  0  0  0  0  0  0  0  0  0  0
   -1.2829   -0.9501   -1.3152 H   0  0  0  0  0  0  0  0  0  0  0  0
   -0.2030    0.4431   -1.5412 H   0  0  0  0  0  0  0  0  0  0  0  0
    0.1227   -1.7513    0.5836 H   0  0  0  0  0  0  0  0  0  0  0  0
    1.0117   -1.6929   -0.9527 H   0  0  0  0  0  0  0  0  0  0  0  0
    2.4470    1.3864    0.5083 H   0  0  0  0  0  0  0  0  0  0  0  0
  1  2  1  0
  1 12  2  0
  3  1  1  0
  3  4  2  0
  4  6  1  0
  5  4  1  0
  7  8  2  0
  8  9  1  0
  8  6  1  0
  9 15  1  0
 10 11  1  0
 10  6  2  0
 12 10  1  0
 13 14  2  0
 14 18  1  0
 15 13  1  0
 15 16  2  0
 16 17  1  0
 18 17  2  0
 19 14  1  0
 19 20  1  0
 20 21  1  0
 21 22  1  0
 22 23  1  0
 23 24  1  0
 23 27  1  0
 24 25  1  0
 25 20  1  0
 26 19  2  0
 28 29  1  0
 28 39  2  0
 30 28  1  0
 30 31  2  0
 31 33  1  0
 32 31  1  0
 34 35  2  0
 35 36  1  0
 35 33  1  0
 36 42  1  0
 37 38  1  0
 37 33  2  0
 39 37  1  0
 40 41  2  0
 41 45  1  0
 42 40  1  0
 42 43  2  0
 43 44  1  0
 45 44  2  0
 46 41  1  0
 46 47  1  0
 47 48  1  0
 48 49  1  0
 49 50  1  0
 50 51  1  0
 50 54  1  0
 51 52  1  0
 52 47  1  0
 53 46  2  0
 55 56  1  0
 56 57  2  0
 56 58  1  0
 58 59  1  0
 59 60  1  0
 60 61  2  0
 60 62  1  0
  3 63  1  0
  9 64  1  0
 12 65  1  0
 16 66  1  0
 17 67  1  0
 18 68  1  0
 20 69  1  0
 21 70  1  0
 21 71  1  0
 22 72  1  0
 22 73  1  0
 24 74  1  0
 24 75  1  0
 25 76  1  0
 25 77  1  0
 27 78  1  0
 27 79  1  0
 27 80  1  0
 30 81  1  0
 36 82  1  0
 39 83  1  0
 43 84  1  0
 44 85  1  0
 45 86  1  0
 47 87  1  0
 48 88  1  0
 48 89  1  0
 49 90  1  0
 49 91  1  0
 51 92  1  0
 51 93  1  0
 52 94  1  0
 52 95  1  0
 54 96  1  0
 54 97  1  0
 54 98  1  0
 55 99  1  0
 58100  1  0
 58101  1  0
 59102  1  0
 59103  1  0
 62104  1  0
M  END
$$$$
