
     RDKit          3D

 20 19  0  0  0  0  0  0  0  0999 V2000
    1.4280    0.9496   -0.1532 C   0  0  0  0  0  0  0  0  0  0  0  0
    2.0129   -0.5319    1.6608 N   0  0  0  0  0  0  0  0  0  0  0  0
   -0.0135    0.6260   -0.1525 C   0  0  0  0  0  0  0  0  0  0  0  0
    2.3247   -0.1432    0.3039 C   0  0  0  0  0  0  0  0  0  0  0  0
   -0.8258    0.8570    0.9611 C   0  0  0  0  0  0  0  0  0  0  0  0
   -0.5870    0.0702   -1.3026 C   0  0  0  0  0  0  0  0  0  0  0  0
    2.5079   -1.2802   -0.6460 C   0  0  0  0  0  0  0  0  0  0  0  0
   -1.9349   -0.2453   -1.3367 C   0  0  0  0  0  0  0  0  0  0  0  0
   -2.1793    0.5308    0.9017 C   0  0  0  0  0  0  0  0  0  0  0  0
   -2.7329   -0.0161   -0.2365 C   0  0  0  0  0  0  0  0  0  0  0  0
   -2.8380   -0.1793    0.4532 C   0  0  0  0  0  0  0  0  0  0  0  0
    2.7949    0.4032    0.5255 C   0  0  0  0  0  0  0  0  0  0  0  0
   -3.1002   -1.2890   -0.1161 O   0  0  0  0  0  0  0  0  0  0  0  0
    2.9785    1.6322    0.2392 O   0  0  0  0  0  0  0  0  0  0  0  0
    3.8896   -0.4517    0.5989 O   0  0  0  0  0  0  0  0  0  0  0  0
   -3.8116    0.5253    1.1418 O   0  0  0  0  0  0  0  0  0  0  0  0
    1.3941   -0.0702    0.7725 C   0  0  0  0  0  0  0  0  0  0  0  0
   -1.4425    0.3231    0.3447 C   0  0  0  0  0  0  0  0  0  0  0  0
   -0.6388   -0.6829   -0.4686 C   0  0  0  0  0  0  0  0  0  0  0  0
    0.7740   -0.2107   -0.5998 C   0  0  0  0  0  0  0  0  0  0  0  0
  2  4  1  0
  3  1  1  0
  4  1  1  0
  5  3  2  0
  6  3  1  0
  7  4  1  0
  8  6  2  0
  9  5  1  0
 10  8  1  0
 10  9  2  0
 12 17  1  0
 13 11  2  0
 14 12  2  0
 15 12  1  0
 16 11  1  0
 17 20  1  0
 18 11  1  0
 19 18  1  0
 20 19  1  0
M  END
