
     RDKit          3D

 43 42  0  0  0  0  0  0  0  0999 V2000
   -0.7175    0.5582   -0.8773 C   0  0  0  0  0  0  0  0  0  0  0  0
   -3.0999    0.9702   -0.3414 N   0  0  0  0  0  0  0  0  0  0  0  0
    0.6589    0.2124   -0.3596 C   0  0  0  0  0  0  0  0  0  0  0  0
   -1.8310    0.4477    0.1865 C   0  0  1  0  0  0  0  0  0  0  0  0
    1.3329    1.0854    0.5059 C   0  0  0  0  0  0  0  0  0  0  0  0
    1.2805   -0.9867   -0.7334 C   0  0  0  0  0  0  0  0  0  0  0  0
   -2.0603   -0.9946    0.6396 C   0  0  0  0  0  0  0  0  0  0  0  0
    2.5498   -1.3068   -0.2488 C   0  0  0  0  0  0  0  0  0  0  0  0
    2.6020    0.7634    0.9891 C   0  0  0  0  0  0  0  0  0  0  0  0
    3.2099   -0.4323    0.6122 C   0  0  0  0  0  0  0  0  0  0  0  0
   -2.5023    0.9937   -0.2042 C   0  0  0  0  0  0  0  0  0  0  0  0
    2.3028   -0.0174   -0.4940 C   0  0  0  0  0  0  0  0  0  0  0  0
   -2.6006    2.0149    0.4534 O   0  0  0  0  0  0  0  0  0  0  0  0
    2.0771    0.6561   -1.4851 O   0  0  0  0  0  0  0  0  0  0  0  0
    3.3510    0.2533    0.3043 O   0  0  0  0  0  0  0  0  0  0  0  0
   -3.4236    0.6898   -1.1399 O   0  0  0  0  0  0  0  0  0  0  0  0
    1.4871   -1.1832   -0.0142 C   0  0  0  0  0  0  0  0  0  0  0  0
   -1.4265   -0.0561   -0.1173 C   0  0  0  0  0  0  0  0  0  0  0  0
   -0.4012    0.2770    0.9658 C   0  0  0  0  0  0  0  0  0  0  0  0
    0.6301   -0.8330    1.1983 C   0  0  0  0  0  0  0  0  0  0  0  0
   -0.9598   -0.0747   -1.7416 H   0  0  0  0  0  0  0  0  0  0  0  0
   -0.6761    1.5847   -1.2672 H   0  0  0  0  0  0  0  0  0  0  0  0
   -2.9689    1.9285   -0.6630 H   0  0  0  0  0  0  0  0  0  0  0  0
   -3.3818    0.4312   -1.1596 H   0  0  0  0  0  0  0  0  0  0  0  0
   -1.5672    1.0480    1.0650 H   0  0  0  0  0  0  0  0  0  0  0  0
    0.8729    2.0234    0.8088 H   0  0  0  0  0  0  0  0  0  0  0  0
    0.7791   -1.6825   -1.4023 H   0  0  0  0  0  0  0  0  0  0  0  0
   -1.1728   -1.3986    1.1371 H   0  0  0  0  0  0  0  0  0  0  0  0
   -2.3023   -1.6486   -0.2058 H   0  0  0  0  0  0  0  0  0  0  0  0
   -2.8865   -1.0524    1.3576 H   0  0  0  0  0  0  0  0  0  0  0  0
    3.0235   -2.2398   -0.5428 H   0  0  0  0  0  0  0  0  0  0  0  0
    3.1165    1.4462    1.6602 H   0  0  0  0  0  0  0  0  0  0  0  0
    4.1980   -0.6826    0.9891 H   0  0  0  0  0  0  0  0  0  0  0  0
    3.7779    1.0302   -0.1144 H   0  0  0  0  0  0  0  0  0  0  0  0
   -4.0509    1.4422   -1.1070 H   0  0  0  0  0  0  0  0  0  0  0  0
    2.1740   -2.0018    0.2315 H   0  0  0  0  0  0  0  0  0  0  0  0
    0.8743   -1.5451   -0.8465 H   0  0  0  0  0  0  0  0  0  0  0  0
   -1.9046   -1.0158    0.1074 H   0  0  0  0  0  0  0  0  0  0  0  0
   -0.9402   -0.1162   -1.0962 H   0  0  0  0  0  0  0  0  0  0  0  0
    0.1070    1.2169    0.7175 H   0  0  0  0  0  0  0  0  0  0  0  0
   -0.9232    0.4591    1.9142 H   0  0  0  0  0  0  0  0  0  0  0  0
    0.1096   -1.7388    1.5327 H   0  0  0  0  0  0  0  0  0  0  0  0
    1.2820   -0.5255    2.0255 H   0  0  0  0  0  0  0  0  0  0  0  0
  2  4  1  0
  3  1  1  0
  4  1  1  0
  5  3  2  0
  6  3  1  0
  7  4  1  0
  8  6  2  0
  9  5  1  0
 10  8  1  0
 10  9  2  0
 12 17  1  0
 13 11  2  0
 14 12  2  0
 15 12  1  0
 16 11  1  0
 17 20  1  0
 18 11  1  0
 19 18  1  0
 20 19  1  0
  1 21  1  0
  1 22  1  0
  2 23  1  0
  2 24  1  0
  4 25  1  1
  5 26  1  0
  6 27  1  0
  7 28  1  0
  7 29  1  0
  7 30  1  0
  8 31  1  0
  9 32  1  0
 10 33  1  0
 15 34  1  0
 16 35  1  0
 17 36  1  0
 17 37  1  0
 18 38  1  0
 18 39  1  0
 19 40  1  0
 19 41  1  0
 20 42  1  0
 20 43  1  0
M  END
$$$$
