
     RDKit          3D

 27 20  0  0  0  0  0  0  0  0999 V2000
    0.0034    0.3978    0.0000 O   0  0  0  0  0  0  0  0  0  0  0  0
    0.8755   -0.0492    0.0463 C   0  0  0  0  0  0  0  0  0  0  0  0
    1.4386    0.9941    0.4817 O   0  0  0  0  0  0  0  0  0  0  0  0
    1.3781   -1.1443   -0.3296 O   0  0  0  0  0  0  0  0  0  0  0  0
   -0.6390    0.0315   -0.0355 C   0  0  0  0  0  0  0  0  0  0  0  0
    0.8712    0.0996   -0.0455 C   0  0  0  0  0  0  0  0  0  0  0  0
    1.5284   -0.9762    0.0327 O   0  0  0  0  0  0  0  0  0  0  0  0
    1.2754    1.2879   -0.1782 O   0  0  0  0  0  0  0  0  0  0  0  0
   -0.6363   -0.0680    0.0328 C   0  0  0  0  0  0  0  0  0  0  0  0
    0.0000    0.0000    0.0000 Mg  0  0  0  0  0 15  0  0  0  0  0  0
    0.0032    0.3978    0.0000 O   0  0  0  0  0  0  0  0  0  0  0  0
   -0.0010    0.3978    0.0000 O   0  0  0  0  0  0  0  0  0  0  0  0
   -0.0002    0.3978    0.0000 O   0  0  0  0  0  0  0  0  0  0  0  0
   -0.7652   -0.1923    0.0000 H   0  0  0  0  0  0  0  0  0  0  0  0
    0.7617   -0.2055    0.0000 H   0  0  0  0  0  0  0  0  0  0  0  0
   -1.0678   -0.8995   -0.4187 H   0  0  0  0  0  0  0  0  0  0  0  0
   -0.9311    0.8474   -0.7033 H   0  0  0  0  0  0  0  0  0  0  0  0
   -1.0543    0.2200    0.9590 H   0  0  0  0  0  0  0  0  0  0  0  0
   -0.9085   -0.5331    0.9849 H   0  0  0  0  0  0  0  0  0  0  0  0
   -1.1490    0.8960   -0.0404 H   0  0  0  0  0  0  0  0  0  0  0  0
   -0.9812   -0.7062   -0.7862 H   0  0  0  0  0  0  0  0  0  0  0  0
   -0.7650   -0.1928    0.0000 H   0  0  0  0  0  0  0  0  0  0  0  0
    0.7619   -0.2050    0.0000 H   0  0  0  0  0  0  0  0  0  0  0  0
    0.7639   -0.1971    0.0000 H   0  0  0  0  0  0  0  0  0  0  0  0
   -0.7630   -0.2008    0.0000 H   0  0  0  0  0  0  0  0  0  0  0  0
   -0.7634   -0.1992    0.0000 H   0  0  0  0  0  0  0  0  0  0  0  0
    0.7636   -0.1986    0.0000 H   0  0  0  0  0  0  0  0  0  0  0  0
  5  2  1  0
  3  2  1  0
  4  2  2  0
  7  6  1  0
  8  6  2  0
  9  6  1  0
  1 14  1  0
  1 15  1  0
  5 16  1  0
  5 17  1  0
  5 18  1  0
  9 19  1  0
  9 20  1  0
  9 21  1  0
 11 22  1  0
 11 23  1  0
 12 24  1  0
 12 25  1  0
 13 26  1  0
 13 27  1  0
M  CHG  3   3  -1   7  -1  10   2
M  END
$$$$
