
     RDKit          3D

 27 20  0  0  0  0  0  0  0  0999 V2000
   -0.0002    0.3978    0.0000 O   0  0  0  0  0  0  0  0  0  0  0  0
    0.8764    0.0532   -0.0125 C   0  0  0  0  0  0  0  0  0  0  0  0
    1.3492    1.2235    0.0001 O   0  0  0  0  0  0  0  0  0  0  0  0
    1.4706   -1.0609   -0.0406 O   0  0  0  0  0  0  0  0  0  0  0  0
   -0.6398   -0.0341    0.0092 C   0  0  0  0  0  0  0  0  0  0  0  0
    0.8597    0.0875    0.1557 C   0  0  0  0  0  0  0  0  0  0  0  0
    1.3703    1.1800   -0.2174 O   0  0  0  0  0  0  0  0  0  0  0  0
    1.3956   -0.9062    0.7218 O   0  0  0  0  0  0  0  0  0  0  0  0
   -0.6274   -0.0596   -0.1156 C   0  0  0  0  0  0  0  0  0  0  0  0
    0.0000    0.0000    0.0000 Mg  0  0  0  0  0 15  0  0  0  0  0  0
    0.0007    0.3978    0.0000 O   0  0  0  0  0  0  0  0  0  0  0  0
    0.0010    0.3978    0.0000 O   0  0  0  0  0  0  0  0  0  0  0  0
    0.0005    0.3978    0.0000 O   0  0  0  0  0  0  0  0  0  0  0  0
    0.7636   -0.1986    0.0000 H   0  0  0  0  0  0  0  0  0  0  0  0
   -0.7634   -0.1992    0.0000 H   0  0  0  0  0  0  0  0  0  0  0  0
   -1.0962    0.9601    0.0330 H   0  0  0  0  0  0  0  0  0  0  0  0
   -0.9938   -0.5559   -0.8849 H   0  0  0  0  0  0  0  0  0  0  0  0
   -0.9665   -0.5859    0.8957 H   0  0  0  0  0  0  0  0  0  0  0  0
   -1.1629   -0.2093    0.8267 H   0  0  0  0  0  0  0  0  0  0  0  0
   -1.0332    0.8303   -0.6064 H   0  0  0  0  0  0  0  0  0  0  0  0
   -0.8021   -0.9227   -0.7648 H   0  0  0  0  0  0  0  0  0  0  0  0
   -0.7638   -0.1976    0.0000 H   0  0  0  0  0  0  0  0  0  0  0  0
    0.7631   -0.2002    0.0000 H   0  0  0  0  0  0  0  0  0  0  0  0
    0.7630   -0.2009    0.0000 H   0  0  0  0  0  0  0  0  0  0  0  0
   -0.7640   -0.1969    0.0000 H   0  0  0  0  0  0  0  0  0  0  0  0
   -0.7637   -0.1980    0.0000 H   0  0  0  0  0  0  0  0  0  0  0  0
    0.7632   -0.1998    0.0000 H   0  0  0  0  0  0  0  0  0  0  0  0
  5  2  1  0
  3  2  1  0
  4  2  2  0
  7  6  1  0
  8  6  2  0
  9  6  1  0
  1 14  1  0
  1 15  1  0
  5 16  1  0
  5 17  1  0
  5 18  1  0
  9 19  1  0
  9 20  1  0
  9 21  1  0
 11 22  1  0
 11 23  1  0
 12 24  1  0
 12 25  1  0
 13 26  1  0
 13 27  1  0
M  CHG  3   3  -1   7  -1  10   2
M  END
$$$$
