
     RDKit          3D

 27 20  0  0  0  0  0  0  0  0999 V2000
   -0.0026    0.3978    0.0000 O   0  0  0  0  0  0  0  0  0  0  0  0
    0.8759   -0.0336   -0.0516 C   0  0  0  0  0  0  0  0  0  0  0  0
    1.4549    1.0804   -0.1827 O   0  0  0  0  0  0  0  0  0  0  0  0
    1.3627   -1.1969    0.0175 O   0  0  0  0  0  0  0  0  0  0  0  0
   -0.6390    0.0292    0.0372 C   0  0  0  0  0  0  0  0  0  0  0  0
    0.8716    0.1051    0.0164 C   0  0  0  0  0  0  0  0  0  0  0  0
    1.2547    1.2948    0.1976 O   0  0  0  0  0  0  0  0  0  0  0  0
    1.5483   -0.9484   -0.1437 O   0  0  0  0  0  0  0  0  0  0  0  0
   -0.6354   -0.0813   -0.0127 C   0  0  0  0  0  0  0  0  0  0  0  0
    0.0000    0.0000    0.0000 Mg  0  0  0  0  0 15  0  0  0  0  0  0
   -0.0000    0.3978    0.0000 O   0  0  0  0  0  0  0  0  0  0  0  0
   -0.0020    0.3978    0.0000 O   0  0  0  0  0  0  0  0  0  0  0  0
   -0.0004    0.3978    0.0000 O   0  0  0  0  0  0  0  0  0  0  0  0
   -0.7621   -0.2040    0.0000 H   0  0  0  0  0  0  0  0  0  0  0  0
    0.7648   -0.1938    0.0000 H   0  0  0  0  0  0  0  0  0  0  0  0
   -1.0823   -0.5453   -0.7815 H   0  0  0  0  0  0  0  0  0  0  0  0
   -0.9722   -0.3939    0.9896 H   0  0  0  0  0  0  0  0  0  0  0  0
   -1.0000    1.0601   -0.0285 H   0  0  0  0  0  0  0  0  0  0  0  0
   -1.0677    0.2459    0.9377 H   0  0  0  0  0  0  0  0  0  0  0  0
   -0.9046   -1.1298   -0.1723 H   0  0  0  0  0  0  0  0  0  0  0  0
   -1.0669    0.5138   -0.8231 H   0  0  0  0  0  0  0  0  0  0  0  0
    0.7635   -0.1989    0.0000 H   0  0  0  0  0  0  0  0  0  0  0  0
   -0.7635   -0.1990    0.0000 H   0  0  0  0  0  0  0  0  0  0  0  0
    0.7645   -0.1950    0.0000 H   0  0  0  0  0  0  0  0  0  0  0  0
   -0.7625   -0.2028    0.0000 H   0  0  0  0  0  0  0  0  0  0  0  0
   -0.7633   -0.1996    0.0000 H   0  0  0  0  0  0  0  0  0  0  0  0
    0.7636   -0.1982    0.0000 H   0  0  0  0  0  0  0  0  0  0  0  0
  5  2  1  0
  3  2  1  0
  4  2  2  0
  7  6  1  0
  8  6  2  0
  9  6  1  0
  1 14  1  0
  1 15  1  0
  5 16  1  0
  5 17  1  0
  5 18  1  0
  9 19  1  0
  9 20  1  0
  9 21  1  0
 11 22  1  0
 11 23  1  0
 12 24  1  0
 12 25  1  0
 13 26  1  0
 13 27  1  0
M  CHG  3   3  -1   7  -1  10   2
M  END
$$$$
