
     RDKit          3D

 13  6  0  0  0  0  0  0  0  0999 V2000
    0.0000    0.0000    0.0000 O   0  0  0  0  0  0  0  0  0  0  0  0
   -0.0314    0.0362   -0.0086 C   0  0  0  0  0  0  0  0  0  0  0  0
   -0.9535   -0.9704    0.1422 O   0  0  0  0  0  0  0  0  0  0  0  0
   -0.4175    1.1949   -0.2524 O   0  0  0  0  0  0  0  0  0  0  0  0
    1.4024   -0.2607    0.1188 C   0  0  0  0  0  0  0  0  0  0  0  0
   -0.0337    0.0460   -0.0013 C   0  0  0  0  0  0  0  0  0  0  0  0
   -1.0568   -0.8964   -0.0399 O   0  0  0  0  0  0  0  0  0  0  0  0
   -0.2810    1.2710   -0.0109 O   0  0  0  0  0  0  0  0  0  0  0  0
    1.3715   -0.4205    0.0521 C   0  0  0  0  0  0  0  0  0  0  0  0
    0.0000    0.0000    0.0000 Mg  0  0  0  0  0 15  0  0  0  0  0  0
    0.0000    0.0000    0.0000 O   0  0  0  0  0  0  0  0  0  0  0  0
    0.0000    0.0000    0.0000 O   0  0  0  0  0  0  0  0  0  0  0  0
    0.0000    0.0000    0.0000 O   0  0  0  0  0  0  0  0  0  0  0  0
  5  2  1  0
  3  2  1  0
  4  2  2  0
  7  6  1  0
  8  6  2  0
  9  6  1  0
M  CHG  3   3  -1   7  -1  10   2
M  END
