
     RDKit          3D

 27 20  0  0  0  0  0  0  0  0999 V2000
   -0.0023    0.3978    0.0000 O   0  0  0  0  0  0  0  0  0  0  0  0
    0.8754    0.0079    0.0684 C   0  0  0  0  0  0  0  0  0  0  0  0
    1.3848    1.1444    0.2764 O   0  0  0  0  0  0  0  0  0  0  0  0
    1.4314   -1.1190   -0.0547 O   0  0  0  0  0  0  0  0  0  0  0  0
   -0.6386   -0.0055   -0.0521 C   0  0  0  0  0  0  0  0  0  0  0  0
    0.8643    0.0109   -0.1548 C   0  0  0  0  0  0  0  0  0  0  0  0
    1.4580   -1.0845    0.0490 O   0  0  0  0  0  0  0  0  0  0  0  0
    1.3227    1.1206   -0.5456 O   0  0  0  0  0  0  0  0  0  0  0  0
   -0.6310   -0.0088    0.1110 C   0  0  0  0  0  0  0  0  0  0  0  0
    0.0000    0.0000    0.0000 Mg  0  0  0  0  0 15  0  0  0  0  0  0
   -0.0010    0.3978    0.0000 O   0  0  0  0  0  0  0  0  0  0  0  0
   -0.0016    0.3978    0.0000 O   0  0  0  0  0  0  0  0  0  0  0  0
   -0.0024    0.3978    0.0000 O   0  0  0  0  0  0  0  0  0  0  0  0
   -0.7623   -0.2033    0.0000 H   0  0  0  0  0  0  0  0  0  0  0  0
    0.7646   -0.1945    0.0000 H   0  0  0  0  0  0  0  0  0  0  0  0
   -1.0811   -0.1533    0.9373 H   0  0  0  0  0  0  0  0  0  0  0  0
   -0.9685   -0.8146   -0.7109 H   0  0  0  0  0  0  0  0  0  0  0  0
   -1.0034    0.9402   -0.4645 H   0  0  0  0  0  0  0  0  0  0  0  0
   -1.1513    0.6915   -0.5496 H   0  0  0  0  0  0  0  0  0  0  0  0
   -1.0429   -1.0082   -0.0593 H   0  0  0  0  0  0  0  0  0  0  0  0
   -0.8199    0.2785    1.1493 H   0  0  0  0  0  0  0  0  0  0  0  0
    0.7640   -0.1969    0.0000 H   0  0  0  0  0  0  0  0  0  0  0  0
   -0.7629   -0.2009    0.0000 H   0  0  0  0  0  0  0  0  0  0  0  0
    0.7643   -0.1958    0.0000 H   0  0  0  0  0  0  0  0  0  0  0  0
   -0.7627   -0.2020    0.0000 H   0  0  0  0  0  0  0  0  0  0  0  0
    0.7646   -0.1944    0.0000 H   0  0  0  0  0  0  0  0  0  0  0  0
   -0.7623   -0.2035    0.0000 H   0  0  0  0  0  0  0  0  0  0  0  0
  5  2  1  0
  3  2  1  0
  4  2  2  0
  7  6  1  0
  8  6  2  0
  9  6  1  0
  1 14  1  0
  1 15  1  0
  5 16  1  0
  5 17  1  0
  5 18  1  0
  9 19  1  0
  9 20  1  0
  9 21  1  0
 11 22  1  0
 11 23  1  0
 12 24  1  0
 12 25  1  0
 13 26  1  0
 13 27  1  0
M  CHG  3   3  -1   7  -1  10   2
M  END
$$$$
