
     RDKit          3D

 27 20  0  0  0  0  0  0  0  0999 V2000
   -0.0010    0.3978    0.0000 O   0  0  0  0  0  0  0  0  0  0  0  0
    0.8455    0.0281   -0.2353 C   0  0  0  0  0  0  0  0  0  0  0  0
    1.4472   -1.0804   -0.1686 O   0  0  0  0  0  0  0  0  0  0  0  0
    1.2736    1.1624   -0.5866 O   0  0  0  0  0  0  0  0  0  0  0  0
   -0.6173   -0.0159    0.1708 C   0  0  0  0  0  0  0  0  0  0  0  0
    0.8688    0.1091    0.0650 C   0  0  0  0  0  0  0  0  0  0  0  0
    1.3073    1.1675   -0.4666 O   0  0  0  0  0  0  0  0  0  0  0  0
    1.4871   -0.8092    0.6715 O   0  0  0  0  0  0  0  0  0  0  0  0
   -0.6336   -0.0837   -0.0451 C   0  0  0  0  0  0  0  0  0  0  0  0
    0.0000    0.0000    0.0000 Mg  0  0  0  0  0 15  0  0  0  0  0  0
    0.0018    0.3978    0.0000 O   0  0  0  0  0  0  0  0  0  0  0  0
    0.0032    0.3978    0.0000 O   0  0  0  0  0  0  0  0  0  0  0  0
   -0.0000    0.3978    0.0000 O   0  0  0  0  0  0  0  0  0  0  0  0
   -0.7630   -0.2008    0.0000 H   0  0  0  0  0  0  0  0  0  0  0  0
    0.7640   -0.1970    0.0000 H   0  0  0  0  0  0  0  0  0  0  0  0
   -0.7043   -0.3579    1.2064 H   0  0  0  0  0  0  0  0  0  0  0  0
   -1.0829    0.9713    0.0923 H   0  0  0  0  0  0  0  0  0  0  0  0
   -1.1617   -0.7076   -0.4790 H   0  0  0  0  0  0  0  0  0  0  0  0
   -0.9523   -1.0152    0.4325 H   0  0  0  0  0  0  0  0  0  0  0  0
   -0.9267   -0.1173   -1.0986 H   0  0  0  0  0  0  0  0  0  0  0  0
   -1.1507    0.7489    0.4413 H   0  0  0  0  0  0  0  0  0  0  0  0
   -0.7644   -0.1954    0.0000 H   0  0  0  0  0  0  0  0  0  0  0  0
    0.7625   -0.2024    0.0000 H   0  0  0  0  0  0  0  0  0  0  0  0
    0.7619   -0.2050    0.0000 H   0  0  0  0  0  0  0  0  0  0  0  0
   -0.7650   -0.1928    0.0000 H   0  0  0  0  0  0  0  0  0  0  0  0
   -0.7635   -0.1989    0.0000 H   0  0  0  0  0  0  0  0  0  0  0  0
    0.7635   -0.1989    0.0000 H   0  0  0  0  0  0  0  0  0  0  0  0
  5  2  1  0
  3  2  1  0
  4  2  2  0
  7  6  1  0
  8  6  2  0
  9  6  1  0
  1 14  1  0
  1 15  1  0
  5 16  1  0
  5 17  1  0
  5 18  1  0
  9 19  1  0
  9 20  1  0
  9 21  1  0
 11 22  1  0
 11 23  1  0
 12 24  1  0
 12 25  1  0
 13 26  1  0
 13 27  1  0
M  CHG  3   3  -1   7  -1  10   2
M  END
$$$$
