
     RDKit          3D

 27 20  0  0  0  0  0  0  0  0999 V2000
   -0.0029    0.3978    0.0000 O   0  0  0  0  0  0  0  0  0  0  0  0
    0.8760    0.0598    0.0050 C   0  0  0  0  0  0  0  0  0  0  0  0
    1.3231    1.2133    0.2591 O   0  0  0  0  0  0  0  0  0  0  0  0
    1.4945   -1.0126   -0.2412 O   0  0  0  0  0  0  0  0  0  0  0  0
   -0.6389   -0.0482   -0.0047 C   0  0  0  0  0  0  0  0  0  0  0  0
    0.8519   -0.0588   -0.2045 C   0  0  0  0  0  0  0  0  0  0  0  0
    1.5186    0.9918    0.0118 O   0  0  0  0  0  0  0  0  0  0  0  0
    1.2232   -1.1730   -0.6672 O   0  0  0  0  0  0  0  0  0  0  0  0
   -0.6223    0.0385    0.1478 C   0  0  0  0  0  0  0  0  0  0  0  0
    0.0000    0.0000    0.0000 Mg  0  0  0  0  0 15  0  0  0  0  0  0
   -0.0007    0.3978    0.0000 O   0  0  0  0  0  0  0  0  0  0  0  0
   -0.0049    0.3978    0.0000 O   0  0  0  0  0  0  0  0  0  0  0  0
   -0.0029    0.3978    0.0000 O   0  0  0  0  0  0  0  0  0  0  0  0
   -0.7620   -0.2045    0.0000 H   0  0  0  0  0  0  0  0  0  0  0  0
    0.7649   -0.1933    0.0000 H   0  0  0  0  0  0  0  0  0  0  0  0
   -1.0534    0.6227   -0.7630 H   0  0  0  0  0  0  0  0  0  0  0  0
   -0.9646   -1.0683   -0.2300 H   0  0  0  0  0  0  0  0  0  0  0  0
   -1.0367    0.2334    0.9748 H   0  0  0  0  0  0  0  0  0  0  0  0
   -1.1450   -0.8999   -0.0610 H   0  0  0  0  0  0  0  0  0  0  0  0
   -0.7346    0.2676    1.2118 H   0  0  0  0  0  0  0  0  0  0  0  0
   -1.0917    0.8339   -0.4386 H   0  0  0  0  0  0  0  0  0  0  0  0
   -0.7631   -0.2002    0.0000 H   0  0  0  0  0  0  0  0  0  0  0  0
    0.7638   -0.1976    0.0000 H   0  0  0  0  0  0  0  0  0  0  0  0
    0.7659   -0.1894    0.0000 H   0  0  0  0  0  0  0  0  0  0  0  0
   -0.7609   -0.2083    0.0000 H   0  0  0  0  0  0  0  0  0  0  0  0
   -0.7620   -0.2045    0.0000 H   0  0  0  0  0  0  0  0  0  0  0  0
    0.7649   -0.1933    0.0000 H   0  0  0  0  0  0  0  0  0  0  0  0
  5  2  1  0
  3  2  1  0
  4  2  2  0
  7  6  1  0
  8  6  2  0
  9  6  1  0
  1 14  1  0
  1 15  1  0
  5 16  1  0
  5 17  1  0
  5 18  1  0
  9 19  1  0
  9 20  1  0
  9 21  1  0
 11 22  1  0
 11 23  1  0
 12 24  1  0
 12 25  1  0
 13 26  1  0
 13 27  1  0
M  CHG  3   3  -1   7  -1  10   2
M  END
$$$$
