
     RDKit          3D

109114  0  0  0  0  0  0  0  0999 V2000
    4.5241    0.9577    2.5607 O   0  0  0  0  0  0  0  0  0  0  0  0
    4.4600    0.1013    1.4074 C   0  0  2  0  0  0  0  0  0  0  0  0
    2.9802   -0.0194    1.0203 C   0  0  0  0  0  0  0  0  0  0  0  0
    2.4677    1.2347    0.2939 C   0  0  2  0  0  0  0  0  0  0  0  0
    2.5646    2.4035    1.1132 O   0  0  0  0  0  0  0  0  0  0  0  0
    1.0281    1.1432   -0.1433 C   0  0  0  0  0  0  0  0  0  0  0  0
    0.4369    0.0415   -0.6366 C   0  0  0  0  0  0  0  0  0  0  0  0
   -0.9736   -0.0278   -1.0623 C   0  0  0  0  0  0  0  0  0  0  0  0
   -1.2835   -0.0616   -2.4360 C   0  0  0  0  0  0  0  0  0  0  0  0
   -2.5672   -0.1807   -2.8723 N   0  0  0  0  0  0  0  0  0  0  0  0
   -3.5665   -0.2854   -1.9877 C   0  0  0  0  0  0  0  0  0  0  0  0
   -4.8515   -0.4579   -2.4879 C   0  0  0  0  0  0  0  0  0  0  0  0
   -5.9591   -0.6068   -1.6513 C   0  0  0  0  0  0  0  0  0  0  0  0
   -5.7771   -0.5541   -0.2799 C   0  0  0  0  0  0  0  0  0  0  0  0
   -4.4997   -0.3554    0.2467 C   0  0  0  0  0  0  0  0  0  0  0  0
   -3.3674   -0.2431   -0.5953 C   0  0  0  0  0  0  0  0  0  0  0  0
   -2.0270   -0.1124   -0.1260 C   0  0  0  0  0  0  0  0  0  0  0  0
   -1.7346   -0.1106    1.3276 C   0  0  0  0  0  0  0  0  0  0  0  0
   -1.3620   -1.2827    2.0006 C   0  0  0  0  0  0  0  0  0  0  0  0
   -1.1303   -1.2605    3.3800 C   0  0  0  0  0  0  0  0  0  0  0  0
   -1.2407   -0.0597    4.0759 C   0  0  0  0  0  0  0  0  0  0  0  0
   -1.0376   -0.0409    5.3997 F   0  0  0  0  0  0  0  0  0  0  0  0
   -1.5589    1.1234    3.4198 C   0  0  0  0  0  0  0  0  0  0  0  0
   -1.8268    1.0912    2.0536 C   0  0  0  0  0  0  0  0  0  0  0  0
   -0.1942    0.0127   -3.4997 C   0  0  0  0  0  0  0  0  0  0  0  0
    0.3534    1.3676   -3.8925 C   0  0  0  0  0  0  0  0  0  0  0  0
   -0.4823    0.5923   -4.8625 C   0  0  0  0  0  0  0  0  0  0  0  0
    5.0991   -1.2462    1.7143 C   0  0  0  0  0  0  0  0  0  0  0  0
    5.2794   -2.0959    0.4457 C   0  0  0  0  0  0  0  0  0  0  0  0
    5.2074   -1.4774   -0.6539 O   0  0  0  0  0  0  0  0  0  0  0  0
    5.4888   -3.3284    0.6497 O   0  0  0  0  0  0  0  0  0  0  0  0
    0.0000    0.0000    0.0000 Mg  0  0  0  0  0 15  0  0  0  0  0  0
    4.8118    2.6183    0.0872 O   0  0  0  0  0  0  0  0  0  0  0  0
    4.5742    1.2097   -0.1035 C   0  0  2  0  0  0  0  0  0  0  0  0
    3.1026    0.9667    0.2494 C   0  0  0  0  0  0  0  0  0  0  0  0
    2.6010   -0.4531   -0.0144 C   0  0  2  0  0  0  0  0  0  0  0  0
    2.7073   -0.7650   -1.3965 O   0  0  0  0  0  0  0  0  0  0  0  0
    1.1749   -0.6052    0.4363 C   0  0  0  0  0  0  0  0  0  0  0  0
    0.1015   -0.7654   -0.3528 C   0  0  0  0  0  0  0  0  0  0  0  0
   -1.2669   -0.8339    0.1956 C   0  0  0  0  0  0  0  0  0  0  0  0
   -1.6778   -1.9126    0.9949 C   0  0  0  0  0  0  0  0  0  0  0  0
   -2.9180   -1.9318    1.5616 N   0  0  0  0  0  0  0  0  0  0  0  0
   -3.7768   -0.9270    1.3405 C   0  0  0  0  0  0  0  0  0  0  0  0
   -5.0230   -0.9960    1.9451 C   0  0  0  0  0  0  0  0  0  0  0  0
   -5.9843    0.0039    1.7996 C   0  0  0  0  0  0  0  0  0  0  0  0
   -5.7019    1.1049    1.0116 C   0  0  0  0  0  0  0  0  0  0  0  0
   -4.4669    1.1892    0.3742 C   0  0  0  0  0  0  0  0  0  0  0  0
   -3.4781    0.1797    0.5310 C   0  0  0  0  0  0  0  0  0  0  0  0
   -2.1871    0.2127   -0.0650 C   0  0  0  0  0  0  0  0  0  0  0  0
   -1.7988    1.3260   -0.9563 C   0  0  0  0  0  0  0  0  0  0  0  0
   -1.0902    2.4357   -0.4706 C   0  0  0  0  0  0  0  0  0  0  0  0
   -0.7119    3.4698   -1.3312 C   0  0  0  0  0  0  0  0  0  0  0  0
   -1.0436    3.3976   -2.6767 C   0  0  0  0  0  0  0  0  0  0  0  0
   -0.6882    4.3948   -3.4967 F   0  0  0  0  0  0  0  0  0  0  0  0
   -1.7392    2.3074   -3.1827 C   0  0  0  0  0  0  0  0  0  0  0  0
   -2.1053    1.2688   -2.3280 C   0  0  0  0  0  0  0  0  0  0  0  0
   -0.7768   -3.1197    1.2589 C   0  0  0  0  0  0  0  0  0  0  0  0
   -1.3778   -4.5068    1.3495 C   0  0  0  0  0  0  0  0  0  0  0  0
   -0.5496   -4.1351    0.1535 C   0  0  0  0  0  0  0  0  0  0  0  0
    5.5385    0.4344    0.7815 C   0  0  0  0  0  0  0  0  0  0  0  0
    6.9290    0.4992    0.1614 C   0  0  0  0  0  0  0  0  0  0  0  0
    7.5763   -0.5851    0.1566 O   0  0  0  0  0  0  0  0  0  0  0  0
    7.2488    1.6378   -0.3003 O   0  0  0  0  0  0  0  0  0  0  0  0
    5.4488    0.9257    2.8534 H   0  0  0  0  0  0  0  0  0  0  0  0
    5.0154    0.6119    0.6201 H   0  0  0  0  0  0  0  0  0  0  0  0
    2.8168   -0.9048    0.3997 H   0  0  0  0  0  0  0  0  0  0  0  0
    2.3835   -0.1363    1.9292 H   0  0  0  0  0  0  0  0  0  0  0  0
    3.0729    1.4325   -0.5997 H   0  0  0  0  0  0  0  0  0  0  0  0
    3.1094    2.1467    1.9021 H   0  0  0  0  0  0  0  0  0  0  0  0
    0.4441    2.0617   -0.0685 H   0  0  0  0  0  0  0  0  0  0  0  0
    0.9906   -0.8759   -0.7918 H   0  0  0  0  0  0  0  0  0  0  0  0
   -4.9764   -0.5006   -3.5684 H   0  0  0  0  0  0  0  0  0  0  0  0
   -6.9419   -0.7922   -2.0745 H   0  0  0  0  0  0  0  0  0  0  0  0
   -6.6252   -0.6837    0.3915 H   0  0  0  0  0  0  0  0  0  0  0  0
   -4.3990   -0.3149    1.3311 H   0  0  0  0  0  0  0  0  0  0  0  0
   -1.2381   -2.2166    1.4589 H   0  0  0  0  0  0  0  0  0  0  0  0
   -0.8595   -2.1642    3.9182 H   0  0  0  0  0  0  0  0  0  0  0  0
   -1.5903    2.0607    3.9719 H   0  0  0  0  0  0  0  0  0  0  0  0
   -2.0822    2.0110    1.5427 H   0  0  0  0  0  0  0  0  0  0  0  0
    0.5235   -0.8061   -3.4779 H   0  0  0  0  0  0  0  0  0  0  0  0
   -0.0901    2.2366   -3.4263 H   0  0  0  0  0  0  0  0  0  0  0  0
    1.4205    1.4488   -4.0718 H   0  0  0  0  0  0  0  0  0  0  0  0
    0.0118    0.1230   -5.7030 H   0  0  0  0  0  0  0  0  0  0  0  0
   -1.4756    0.9536   -5.0777 H   0  0  0  0  0  0  0  0  0  0  0  0
    6.0952   -1.0950    2.1618 H   0  0  0  0  0  0  0  0  0  0  0  0
    4.4962   -1.7838    2.4570 H   0  0  0  0  0  0  0  0  0  0  0  0
    5.7852    2.7002   -0.0905 H   0  0  0  0  0  0  0  0  0  0  0  0
    4.7404    0.9991   -1.1642 H   0  0  0  0  0  0  0  0  0  0  0  0
    2.4901    1.6765   -0.3267 H   0  0  0  0  0  0  0  0  0  0  0  0
    2.9399    1.2339    1.3018 H   0  0  0  0  0  0  0  0  0  0  0  0
    3.1823   -1.1877    0.5518 H   0  0  0  0  0  0  0  0  0  0  0  0
    3.1826   -1.6200   -1.4553 H   0  0  0  0  0  0  0  0  0  0  0  0
    1.0308   -0.5565    1.5138 H   0  0  0  0  0  0  0  0  0  0  0  0
    0.1925   -0.7734   -1.4261 H   0  0  0  0  0  0  0  0  0  0  0  0
   -5.2597   -1.8595    2.5612 H   0  0  0  0  0  0  0  0  0  0  0  0
   -6.9471   -0.0861    2.2961 H   0  0  0  0  0  0  0  0  0  0  0  0
   -6.4369    1.8856    0.8692 H   0  0  0  0  0  0  0  0  0  0  0  0
   -4.2710    2.0584   -0.2509 H   0  0  0  0  0  0  0  0  0  0  0  0
   -0.8028    2.4776    0.5777 H   0  0  0  0  0  0  0  0  0  0  0  0
   -0.1437    4.3183   -0.9546 H   0  0  0  0  0  0  0  0  0  0  0  0
   -1.9696    2.2654   -4.2444 H   0  0  0  0  0  0  0  0  0  0  0  0
   -2.6127    0.3970   -2.7413 H   0  0  0  0  0  0  0  0  0  0  0  0
    0.0546   -2.9260    1.9368 H   0  0  0  0  0  0  0  0  0  0  0  0
   -2.4480   -4.6097    1.2039 H   0  0  0  0  0  0  0  0  0  0  0  0
   -0.9289   -5.2145    2.0454 H   0  0  0  0  0  0  0  0  0  0  0  0
    0.4271   -4.5953    0.0706 H   0  0  0  0  0  0  0  0  0  0  0  0
   -1.0519   -3.9764   -0.7998 H   0  0  0  0  0  0  0  0  0  0  0  0
    5.2497   -0.6124    0.8959 H   0  0  0  0  0  0  0  0  0  0  0  0
    5.5936    0.8856    1.7749 H   0  0  0  0  0  0  0  0  0  0  0  0
  2  1  1  0
  2  3  1  0
  3  4  1  0
  4  5  1  0
  4  6  1  0
  6  7  2  0
  7  8  1  0
  8  9  2  0
  9 10  1  0
 10 11  2  0
 11 12  1  0
 12 13  2  0
 13 14  1  0
 14 15  2  0
 15 16  1  0
 11 16  1  0
 16 17  2  0
  8 17  1  0
 17 18  1  0
 18 19  2  0
 19 20  1  0
 20 21  2  0
 21 22  1  0
 21 23  1  0
 23 24  2  0
 18 24  1  0
  9 25  1  0
 25 26  1  0
 26 27  1  0
 25 27  1  0
  2 28  1  0
 28 29  1  0
 29 30  2  0
 29 31  1  0
 34 33  1  0
 34 35  1  0
 35 36  1  0
 36 37  1  0
 36 38  1  0
 38 39  2  0
 39 40  1  0
 40 41  2  0
 41 42  1  0
 42 43  2  0
 43 44  1  0
 44 45  2  0
 45 46  1  0
 46 47  2  0
 47 48  1  0
 43 48  1  0
 48 49  2  0
 40 49  1  0
 49 50  1  0
 50 51  2  0
 51 52  1  0
 52 53  2  0
 53 54  1  0
 53 55  1  0
 55 56  2  0
 50 56  1  0
 41 57  1  0
 57 58  1  0
 58 59  1  0
 57 59  1  0
 34 60  1  0
 60 61  1  0
 61 62  2  0
 61 63  1  0
  1 64  1  0
  2 65  1  6
  3 66  1  0
  3 67  1  0
  4 68  1  6
  5 69  1  0
  6 70  1  0
  7 71  1  0
 12 72  1  0
 13 73  1  0
 14 74  1  0
 15 75  1  0
 19 76  1  0
 20 77  1  0
 23 78  1  0
 24 79  1  0
 25 80  1  0
 26 81  1  0
 26 82  1  0
 27 83  1  0
 27 84  1  0
 28 85  1  0
 28 86  1  0
 33 87  1  0
 34 88  1  6
 35 89  1  0
 35 90  1  0
 36 91  1  1
 37 92  1  0
 38 93  1  0
 39 94  1  0
 44 95  1  0
 45 96  1  0
 46 97  1  0
 47 98  1  0
 51 99  1  0
 52100  1  0
 55101  1  0
 56102  1  0
 57103  1  0
 58104  1  0
 58105  1  0
 59106  1  0
 59107  1  0
 60108  1  0
 60109  1  0
M  CHG  3  31  -1  32   2  63  -1
M  END
$$$$
