
     RDKit          3D

109114  0  0  0  0  0  0  0  0999 V2000
    5.2485    0.6225   -2.0173 O   0  0  0  0  0  0  0  0  0  0  0  0
    4.8529   -0.4208   -1.1227 C   0  0  2  0  0  0  0  0  0  0  0  0
    3.5487   -0.0488   -0.3908 C   0  0  0  0  0  0  0  0  0  0  0  0
    2.2939   -0.4547   -1.1815 C   0  0  2  0  0  0  0  0  0  0  0  0
    2.1282    0.3471   -2.3449 O   0  0  0  0  0  0  0  0  0  0  0  0
    1.0586   -0.3633   -0.3142 C   0  0  0  0  0  0  0  0  0  0  0  0
    0.0387    0.4949   -0.4664 C   0  0  0  0  0  0  0  0  0  0  0  0
   -1.1330    0.4538    0.4281 C   0  0  0  0  0  0  0  0  0  0  0  0
   -1.0983    1.1211    1.6655 C   0  0  0  0  0  0  0  0  0  0  0  0
   -2.1527    1.0646    2.5193 N   0  0  0  0  0  0  0  0  0  0  0  0
   -3.2440    0.3573    2.1969 C   0  0  0  0  0  0  0  0  0  0  0  0
   -4.2869    0.3151    3.1112 C   0  0  0  0  0  0  0  0  0  0  0  0
   -5.4587   -0.4046    2.8690 C   0  0  0  0  0  0  0  0  0  0  0  0
   -5.6054   -1.0765    1.6653 C   0  0  0  0  0  0  0  0  0  0  0  0
   -4.5758   -1.0411    0.7248 C   0  0  0  0  0  0  0  0  0  0  0  0
   -3.3750   -0.3350    0.9761 C   0  0  0  0  0  0  0  0  0  0  0  0
   -2.2869   -0.2785    0.0651 C   0  0  0  0  0  0  0  0  0  0  0  0
   -2.3449   -0.9702   -1.2431 C   0  0  0  0  0  0  0  0  0  0  0  0
   -1.9001   -2.2985   -1.3801 C   0  0  0  0  0  0  0  0  0  0  0  0
   -1.9501   -2.9394   -2.6191 C   0  0  0  0  0  0  0  0  0  0  0  0
   -2.4425   -2.2574   -3.7249 C   0  0  0  0  0  0  0  0  0  0  0  0
   -2.4980   -2.8731   -4.9145 F   0  0  0  0  0  0  0  0  0  0  0  0
   -2.8940   -0.9475   -3.6161 C   0  0  0  0  0  0  0  0  0  0  0  0
   -2.8360   -0.3022   -2.3796 C   0  0  0  0  0  0  0  0  0  0  0  0
    0.1074    1.9315    2.1142 C   0  0  0  0  0  0  0  0  0  0  0  0
    0.3402    3.3048    1.5267 C   0  0  0  0  0  0  0  0  0  0  0  0
   -0.0635    3.1702    2.9634 C   0  0  0  0  0  0  0  0  0  0  0  0
    6.0086   -0.7487   -0.1801 C   0  0  0  0  0  0  0  0  0  0  0  0
    6.3251    0.3780    0.7988 C   0  0  0  0  0  0  0  0  0  0  0  0
    6.2423    1.5496    0.3201 O   0  0  0  0  0  0  0  0  0  0  0  0
    6.6284   -0.0008    1.9660 O   0  0  0  0  0  0  0  0  0  0  0  0
    0.0000    0.0000    0.0000 Mg  0  0  0  0  0 15  0  0  0  0  0  0
    4.6405    0.5715    1.4878 O   0  0  0  0  0  0  0  0  0  0  0  0
    4.8274    0.6094    0.0567 C   0  0  2  0  0  0  0  0  0  0  0  0
    3.4652    0.9563   -0.5743 C   0  0  0  0  0  0  0  0  0  0  0  0
    2.4832   -0.2204   -0.6612 C   0  0  2  0  0  0  0  0  0  0  0  0
    2.4649   -0.7915   -1.9638 O   0  0  0  0  0  0  0  0  0  0  0  0
    1.0710    0.2438   -0.4241 C   0  0  0  0  0  0  0  0  0  0  0  0
    0.2645   -0.2626    0.5237 C   0  0  0  0  0  0  0  0  0  0  0  0
   -1.1110    0.1982    0.7726 C   0  0  0  0  0  0  0  0  0  0  0  0
   -1.3949    0.8017    2.0145 C   0  0  0  0  0  0  0  0  0  0  0  0
   -2.6447    1.2370    2.3202 N   0  0  0  0  0  0  0  0  0  0  0  0
   -3.6365    1.0942    1.4354 C   0  0  0  0  0  0  0  0  0  0  0  0
   -4.8991    1.5368    1.8084 C   0  0  0  0  0  0  0  0  0  0  0  0
   -6.0106    1.4145    0.9700 C   0  0  0  0  0  0  0  0  0  0  0  0
   -5.8589    0.8296   -0.2778 C   0  0  0  0  0  0  0  0  0  0  0  0
   -4.6015    0.3691   -0.6708 C   0  0  0  0  0  0  0  0  0  0  0  0
   -3.4640    0.4961    0.1718 C   0  0  0  0  0  0  0  0  0  0  0  0
   -2.1584    0.0389   -0.1668 C   0  0  0  0  0  0  0  0  0  0  0  0
   -1.9229   -0.6140   -1.4727 C   0  0  0  0  0  0  0  0  0  0  0  0
   -1.8898   -2.0171   -1.5750 C   0  0  0  0  0  0  0  0  0  0  0  0
   -1.6718   -2.6324   -2.8065 C   0  0  0  0  0  0  0  0  0  0  0  0
   -1.5051   -1.8555   -3.9460 C   0  0  0  0  0  0  0  0  0  0  0  0
   -1.3207   -2.4527   -5.1313 F   0  0  0  0  0  0  0  0  0  0  0  0
   -1.5373   -0.4684   -3.8732 C   0  0  0  0  0  0  0  0  0  0  0  0
   -1.7404    0.1544   -2.6386 C   0  0  0  0  0  0  0  0  0  0  0  0
   -0.3191    0.9956    3.0720 C   0  0  0  0  0  0  0  0  0  0  0  0
   -0.0391   -0.1109    4.0680 C   0  0  0  0  0  0  0  0  0  0  0  0
   -0.6724    1.1603    4.5310 C   0  0  0  0  0  0  0  0  0  0  0  0
    5.5231   -0.6854   -0.3482 C   0  0  0  0  0  0  0  0  0  0  0  0
    5.9342   -0.6935   -1.8105 C   0  0  0  0  0  0  0  0  0  0  0  0
    4.9841   -0.5597   -2.6296 O   0  0  0  0  0  0  0  0  0  0  0  0
    7.1620   -0.8769   -2.0199 O   0  0  0  0  0  0  0  0  0  0  0  0
    5.6050    1.3261   -1.4155 H   0  0  0  0  0  0  0  0  0  0  0  0
    4.6813   -1.3082   -1.7440 H   0  0  0  0  0  0  0  0  0  0  0  0
    3.5222   -0.5584    0.5809 H   0  0  0  0  0  0  0  0  0  0  0  0
    3.5252    1.0327   -0.2057 H   0  0  0  0  0  0  0  0  0  0  0  0
    2.3936   -1.4975   -1.5163 H   0  0  0  0  0  0  0  0  0  0  0  0
    1.4592   -0.0976   -2.8935 H   0  0  0  0  0  0  0  0  0  0  0  0
    1.0218   -1.0878    0.4958 H   0  0  0  0  0  0  0  0  0  0  0  0
    0.0395    1.2504   -1.2423 H   0  0  0  0  0  0  0  0  0  0  0  0
   -4.1753    0.8585    4.0469 H   0  0  0  0  0  0  0  0  0  0  0  0
   -6.2450   -0.4238    3.6180 H   0  0  0  0  0  0  0  0  0  0  0  0
   -6.5134   -1.6355    1.4630 H   0  0  0  0  0  0  0  0  0  0  0  0
   -4.7231   -1.5799   -0.2105 H   0  0  0  0  0  0  0  0  0  0  0  0
   -1.4984   -2.8376   -0.5207 H   0  0  0  0  0  0  0  0  0  0  0  0
   -1.6029   -3.9614   -2.7323 H   0  0  0  0  0  0  0  0  0  0  0  0
   -3.2761   -0.4341   -4.4932 H   0  0  0  0  0  0  0  0  0  0  0  0
   -3.1809    0.7290   -2.2956 H   0  0  0  0  0  0  0  0  0  0  0  0
    1.0009    1.3417    2.3125 H   0  0  0  0  0  0  0  0  0  0  0  0
   -0.3884    3.6919    0.8245 H   0  0  0  0  0  0  0  0  0  0  0  0
    1.3616    3.6097    1.3214 H   0  0  0  0  0  0  0  0  0  0  0  0
   -1.0670    3.4642    3.2512 H   0  0  0  0  0  0  0  0  0  0  0  0
    0.6898    3.3660    3.7214 H   0  0  0  0  0  0  0  0  0  0  0  0
    6.9236   -0.9356   -0.7557 H   0  0  0  0  0  0  0  0  0  0  0  0
    5.7709   -1.6622    0.3745 H   0  0  0  0  0  0  0  0  0  0  0  0
    5.5265    0.4302    1.8650 H   0  0  0  0  0  0  0  0  0  0  0  0
    5.4992    1.4548   -0.1367 H   0  0  0  0  0  0  0  0  0  0  0  0
    3.0239    1.7573    0.0362 H   0  0  0  0  0  0  0  0  0  0  0  0
    3.6329    1.3751   -1.5716 H   0  0  0  0  0  0  0  0  0  0  0  0
    2.7401   -1.0120    0.0501 H   0  0  0  0  0  0  0  0  0  0  0  0
    3.3929   -0.7493   -2.3156 H   0  0  0  0  0  0  0  0  0  0  0  0
    0.7198    1.0244   -1.0938 H   0  0  0  0  0  0  0  0  0  0  0  0
    0.6332   -1.0372    1.1912 H   0  0  0  0  0  0  0  0  0  0  0  0
   -5.0242    1.9892    2.7906 H   0  0  0  0  0  0  0  0  0  0  0  0
   -6.9839    1.7660    1.2975 H   0  0  0  0  0  0  0  0  0  0  0  0
   -6.7094    0.7187   -0.9441 H   0  0  0  0  0  0  0  0  0  0  0  0
   -4.5139   -0.0919   -1.6536 H   0  0  0  0  0  0  0  0  0  0  0  0
   -1.9992   -2.6311   -0.6860 H   0  0  0  0  0  0  0  0  0  0  0  0
   -1.6224   -3.7113   -2.8845 H   0  0  0  0  0  0  0  0  0  0  0  0
   -1.3936    0.1224   -4.7694 H   0  0  0  0  0  0  0  0  0  0  0  0
   -1.7603    1.2391   -2.5817 H   0  0  0  0  0  0  0  0  0  0  0  0
    0.5391    1.5728    2.7381 H   0  0  0  0  0  0  0  0  0  0  0  0
    0.9951   -0.2905    4.3232 H   0  0  0  0  0  0  0  0  0  0  0  0
   -0.6501   -1.0011    4.0413 H   0  0  0  0  0  0  0  0  0  0  0  0
   -0.0715    1.8318    5.1239 H   0  0  0  0  0  0  0  0  0  0  0  0
   -1.7195    1.1525    4.8055 H   0  0  0  0  0  0  0  0  0  0  0  0
    6.4185   -0.8235    0.2735 H   0  0  0  0  0  0  0  0  0  0  0  0
    4.9048   -1.5655   -0.1409 H   0  0  0  0  0  0  0  0  0  0  0  0
  2  1  1  0
  2  3  1  0
  3  4  1  0
  4  5  1  0
  4  6  1  0
  6  7  2  0
  7  8  1  0
  8  9  2  0
  9 10  1  0
 10 11  2  0
 11 12  1  0
 12 13  2  0
 13 14  1  0
 14 15  2  0
 15 16  1  0
 11 16  1  0
 16 17  2  0
  8 17  1  0
 17 18  1  0
 18 19  2  0
 19 20  1  0
 20 21  2  0
 21 22  1  0
 21 23  1  0
 23 24  2  0
 18 24  1  0
  9 25  1  0
 25 26  1  0
 26 27  1  0
 25 27  1  0
  2 28  1  0
 28 29  1  0
 29 30  2  0
 29 31  1  0
 34 33  1  0
 34 35  1  0
 35 36  1  0
 36 37  1  0
 36 38  1  0
 38 39  2  0
 39 40  1  0
 40 41  2  0
 41 42  1  0
 42 43  2  0
 43 44  1  0
 44 45  2  0
 45 46  1  0
 46 47  2  0
 47 48  1  0
 43 48  1  0
 48 49  2  0
 40 49  1  0
 49 50  1  0
 50 51  2  0
 51 52  1  0
 52 53  2  0
 53 54  1  0
 53 55  1  0
 55 56  2  0
 50 56  1  0
 41 57  1  0
 57 58  1  0
 58 59  1  0
 57 59  1  0
 34 60  1  0
 60 61  1  0
 61 62  2  0
 61 63  1  0
  1 64  1  0
  2 65  1  6
  3 66  1  0
  3 67  1  0
  4 68  1  6
  5 69  1  0
  6 70  1  0
  7 71  1  0
 12 72  1  0
 13 73  1  0
 14 74  1  0
 15 75  1  0
 19 76  1  0
 20 77  1  0
 23 78  1  0
 24 79  1  0
 25 80  1  0
 26 81  1  0
 26 82  1  0
 27 83  1  0
 27 84  1  0
 28 85  1  0
 28 86  1  0
 33 87  1  0
 34 88  1  1
 35 89  1  0
 35 90  1  0
 36 91  1  1
 37 92  1  0
 38 93  1  0
 39 94  1  0
 44 95  1  0
 45 96  1  0
 46 97  1  0
 47 98  1  0
 51 99  1  0
 52100  1  0
 55101  1  0
 56102  1  0
 57103  1  0
 58104  1  0
 58105  1  0
 59106  1  0
 59107  1  0
 60108  1  0
 60109  1  0
M  CHG  3  31  -1  32   2  63  -1
M  END
$$$$
