
     RDKit          3D

109114  0  0  0  0  0  0  0  0999 V2000
    5.3920   -1.3455    1.9450 O   0  0  0  0  0  0  0  0  0  0  0  0
    4.6553   -0.1565    1.6226 C   0  0  2  0  0  0  0  0  0  0  0  0
    3.2128   -0.6074    1.3487 C   0  0  0  0  0  0  0  0  0  0  0  0
    2.2536    0.5043    0.9185 C   0  0  2  0  0  0  0  0  0  0  0  0
    2.1734    1.5301    1.9031 O   0  0  0  0  0  0  0  0  0  0  0  0
    0.8596   -0.0256    0.7577 C   0  0  0  0  0  0  0  0  0  0  0  0
    0.2487   -0.1755   -0.4275 C   0  0  0  0  0  0  0  0  0  0  0  0
   -1.1466   -0.6419   -0.5315 C   0  0  0  0  0  0  0  0  0  0  0  0
   -1.4621   -2.0023   -0.3726 C   0  0  0  0  0  0  0  0  0  0  0  0
   -2.7456   -2.4409   -0.4860 N   0  0  0  0  0  0  0  0  0  0  0  0
   -3.7367   -1.5758   -0.7306 C   0  0  0  0  0  0  0  0  0  0  0  0
   -5.0273   -2.0791   -0.8174 C   0  0  0  0  0  0  0  0  0  0  0  0
   -6.1326   -1.2558   -1.0454 C   0  0  0  0  0  0  0  0  0  0  0  0
   -5.9442    0.1085   -1.2035 C   0  0  0  0  0  0  0  0  0  0  0  0
   -4.6547    0.6333   -1.1343 C   0  0  0  0  0  0  0  0  0  0  0  0
   -3.5266   -0.1950   -0.8998 C   0  0  0  0  0  0  0  0  0  0  0  0
   -2.1879    0.2802   -0.8115 C   0  0  0  0  0  0  0  0  0  0  0  0
   -1.8798    1.7145   -1.0197 C   0  0  0  0  0  0  0  0  0  0  0  0
   -1.7690    2.2360   -2.3204 C   0  0  0  0  0  0  0  0  0  0  0  0
   -1.4546    3.5814   -2.5213 C   0  0  0  0  0  0  0  0  0  0  0  0
   -1.2503    4.4068   -1.4221 C   0  0  0  0  0  0  0  0  0  0  0  0
   -0.9475    5.6981   -1.6164 F   0  0  0  0  0  0  0  0  0  0  0  0
   -1.3520    3.9182   -0.1270 C   0  0  0  0  0  0  0  0  0  0  0  0
   -1.6678    2.5732    0.0729 C   0  0  0  0  0  0  0  0  0  0  0  0
   -0.3963   -3.0546   -0.1120 C   0  0  0  0  0  0  0  0  0  0  0  0
   -0.7440   -4.3669    0.5546 C   0  0  0  0  0  0  0  0  0  0  0  0
    0.0465   -3.3434    1.3078 C   0  0  0  0  0  0  0  0  0  0  0  0
    5.3083    0.5364    0.4331 C   0  0  0  0  0  0  0  0  0  0  0  0
    6.6045    1.1692    0.9298 C   0  0  0  0  0  0  0  0  0  0  0  0
    7.4081    0.3554    1.4720 O   0  0  0  0  0  0  0  0  0  0  0  0
    6.6952    2.4141    0.7511 O   0  0  0  0  0  0  0  0  0  0  0  0
    0.0000    0.0000    0.0000 Mg  0  0  0  0  0 15  0  0  0  0  0  0
    5.9624   -0.3087    0.4043 O   0  0  0  0  0  0  0  0  0  0  0  0
    4.9853    0.7001    0.1072 C   0  0  2  0  0  0  0  0  0  0  0  0
    3.6141    0.0215   -0.0417 C   0  0  0  0  0  0  0  0  0  0  0  0
    2.4667    0.9787   -0.3699 C   0  0  2  0  0  0  0  0  0  0  0  0
    2.2932    1.9190    0.6937 O   0  0  0  0  0  0  0  0  0  0  0  0
    1.1848    0.2161   -0.5688 C   0  0  0  0  0  0  0  0  0  0  0  0
    0.1939    0.1050    0.3296 C   0  0  0  0  0  0  0  0  0  0  0  0
   -1.0539   -0.6387    0.0759 C   0  0  0  0  0  0  0  0  0  0  0  0
   -1.0433   -2.0131   -0.2284 C   0  0  0  0  0  0  0  0  0  0  0  0
   -2.1985   -2.6921   -0.4669 N   0  0  0  0  0  0  0  0  0  0  0  0
   -3.3752   -2.0609   -0.3982 C   0  0  0  0  0  0  0  0  0  0  0  0
   -4.5184   -2.8041   -0.6578 C   0  0  0  0  0  0  0  0  0  0  0  0
   -5.7962   -2.2432   -0.6083 C   0  0  0  0  0  0  0  0  0  0  0  0
   -5.9391   -0.9025   -0.2903 C   0  0  0  0  0  0  0  0  0  0  0  0
   -4.8034   -0.1370   -0.0281 C   0  0  0  0  0  0  0  0  0  0  0  0
   -3.5002   -0.6978   -0.0766 C   0  0  0  0  0  0  0  0  0  0  0  0
   -2.3024    0.0292    0.1738 C   0  0  0  0  0  0  0  0  0  0  0  0
   -2.3687    1.4648    0.5310 C   0  0  0  0  0  0  0  0  0  0  0  0
   -2.6267    1.8576    1.8571 C   0  0  0  0  0  0  0  0  0  0  0  0
   -2.6955    3.2090    2.1972 C   0  0  0  0  0  0  0  0  0  0  0  0
   -2.5114    4.1722    1.2119 C   0  0  0  0  0  0  0  0  0  0  0  0
   -2.5853    5.4682    1.5383 F   0  0  0  0  0  0  0  0  0  0  0  0
   -2.2537    3.8115   -0.1047 C   0  0  0  0  0  0  0  0  0  0  0  0
   -2.1836    2.4595   -0.4443 C   0  0  0  0  0  0  0  0  0  0  0  0
    0.2322   -2.8317   -0.3191 C   0  0  0  0  0  0  0  0  0  0  0  0
    0.2870   -4.2155    0.2948 C   0  0  0  0  0  0  0  0  0  0  0  0
    1.0657   -3.0938    0.9131 C   0  0  0  0  0  0  0  0  0  0  0  0
    5.4520    1.5300   -1.0855 C   0  0  0  0  0  0  0  0  0  0  0  0
    5.4324    0.7051   -2.3668 C   0  0  0  0  0  0  0  0  0  0  0  0
    5.9456   -0.4496   -2.2650 O   0  0  0  0  0  0  0  0  0  0  0  0
    4.8875    1.2666   -3.3526 O   0  0  0  0  0  0  0  0  0  0  0  0
    6.3370   -1.0458    1.9634 H   0  0  0  0  0  0  0  0  0  0  0  0
    4.6767    0.4809    2.5110 H   0  0  0  0  0  0  0  0  0  0  0  0
    2.8381   -1.0762    2.2660 H   0  0  0  0  0  0  0  0  0  0  0  0
    3.2265   -1.4078    0.5975 H   0  0  0  0  0  0  0  0  0  0  0  0
    2.5733    0.9581   -0.0267 H   0  0  0  0  0  0  0  0  0  0  0  0
    2.9903    2.0492    1.8323 H   0  0  0  0  0  0  0  0  0  0  0  0
    0.3513   -0.2848    1.6813 H   0  0  0  0  0  0  0  0  0  0  0  0
    0.7409    0.0946   -1.3556 H   0  0  0  0  0  0  0  0  0  0  0  0
   -5.1738   -3.1500   -0.6940 H   0  0  0  0  0  0  0  0  0  0  0  0
   -7.1259   -1.6910   -1.0964 H   0  0  0  0  0  0  0  0  0  0  0  0
   -6.7942    0.7639   -1.3792 H   0  0  0  0  0  0  0  0  0  0  0  0
   -4.5345    1.7080   -1.2565 H   0  0  0  0  0  0  0  0  0  0  0  0
   -1.9277    1.5832   -3.1802 H   0  0  0  0  0  0  0  0  0  0  0  0
   -1.3581    3.9772   -3.5256 H   0  0  0  0  0  0  0  0  0  0  0  0
   -1.1708    4.5699    0.7214 H   0  0  0  0  0  0  0  0  0  0  0  0
   -1.7275    2.1884    1.0869 H   0  0  0  0  0  0  0  0  0  0  0  0
    0.3685   -3.1197   -0.8815 H   0  0  0  0  0  0  0  0  0  0  0  0
   -0.2316   -5.2543    0.2084 H   0  0  0  0  0  0  0  0  0  0  0  0
   -1.7654   -4.5427    0.8663 H   0  0  0  0  0  0  0  0  0  0  0  0
    1.1026   -3.5266    1.4764 H   0  0  0  0  0  0  0  0  0  0  0  0
   -0.4497   -2.8242    2.1226 H   0  0  0  0  0  0  0  0  0  0  0  0
    4.6768    1.3294    0.0112 H   0  0  0  0  0  0  0  0  0  0  0  0
    5.5449   -0.1732   -0.3668 H   0  0  0  0  0  0  0  0  0  0  0  0
    6.1598   -0.7213   -0.4761 H   0  0  0  0  0  0  0  0  0  0  0  0
    4.9611    1.3555    0.9884 H   0  0  0  0  0  0  0  0  0  0  0  0
    3.3985   -0.4898    0.9079 H   0  0  0  0  0  0  0  0  0  0  0  0
    3.6710   -0.7796   -0.7908 H   0  0  0  0  0  0  0  0  0  0  0  0
    2.6655    1.5412   -1.2898 H   0  0  0  0  0  0  0  0  0  0  0  0
    2.9808    2.5957    0.5684 H   0  0  0  0  0  0  0  0  0  0  0  0
    1.0966   -0.2641   -1.5391 H   0  0  0  0  0  0  0  0  0  0  0  0
    0.2727    0.6001    1.2937 H   0  0  0  0  0  0  0  0  0  0  0  0
   -4.4068   -3.8570   -0.9066 H   0  0  0  0  0  0  0  0  0  0  0  0
   -6.6664   -2.8563   -0.8211 H   0  0  0  0  0  0  0  0  0  0  0  0
   -6.9250   -0.4462   -0.2493 H   0  0  0  0  0  0  0  0  0  0  0  0
   -4.9423    0.9147    0.2171 H   0  0  0  0  0  0  0  0  0  0  0  0
   -2.7622    1.1054    2.6314 H   0  0  0  0  0  0  0  0  0  0  0  0
   -2.8873    3.5093    3.2217 H   0  0  0  0  0  0  0  0  0  0  0  0
   -2.1034    4.5788   -0.8567 H   0  0  0  0  0  0  0  0  0  0  0  0
   -1.9729    2.1776   -1.4724 H   0  0  0  0  0  0  0  0  0  0  0  0
    0.7791   -2.7222   -1.2530 H   0  0  0  0  0  0  0  0  0  0  0  0
    0.8260   -4.9859   -0.2468 H   0  0  0  0  0  0  0  0  0  0  0  0
   -0.5805   -4.5833    0.8288 H   0  0  0  0  0  0  0  0  0  0  0  0
    2.1428   -3.0889    0.7915 H   0  0  0  0  0  0  0  0  0  0  0  0
    0.7248   -2.7004    1.8640 H   0  0  0  0  0  0  0  0  0  0  0  0
    6.4866    1.8645   -0.9361 H   0  0  0  0  0  0  0  0  0  0  0  0
    4.8341    2.4267   -1.2006 H   0  0  0  0  0  0  0  0  0  0  0  0
  2  1  1  0
  2  3  1  0
  3  4  1  0
  4  5  1  0
  4  6  1  0
  6  7  2  0
  7  8  1  0
  8  9  2  0
  9 10  1  0
 10 11  2  0
 11 12  1  0
 12 13  2  0
 13 14  1  0
 14 15  2  0
 15 16  1  0
 11 16  1  0
 16 17  2  0
  8 17  1  0
 17 18  1  0
 18 19  2  0
 19 20  1  0
 20 21  2  0
 21 22  1  0
 21 23  1  0
 23 24  2  0
 18 24  1  0
  9 25  1  0
 25 26  1  0
 26 27  1  0
 25 27  1  0
  2 28  1  0
 28 29  1  0
 29 30  2  0
 29 31  1  0
 34 33  1  0
 34 35  1  0
 35 36  1  0
 36 37  1  0
 36 38  1  0
 38 39  2  0
 39 40  1  0
 40 41  2  0
 41 42  1  0
 42 43  2  0
 43 44  1  0
 44 45  2  0
 45 46  1  0
 46 47  2  0
 47 48  1  0
 43 48  1  0
 48 49  2  0
 40 49  1  0
 49 50  1  0
 50 51  2  0
 51 52  1  0
 52 53  2  0
 53 54  1  0
 53 55  1  0
 55 56  2  0
 50 56  1  0
 41 57  1  0
 57 58  1  0
 58 59  1  0
 57 59  1  0
 34 60  1  0
 60 61  1  0
 61 62  2  0
 61 63  1  0
  1 64  1  0
  2 65  1  1
  3 66  1  0
  3 67  1  0
  4 68  1  6
  5 69  1  0
  6 70  1  0
  7 71  1  0
 12 72  1  0
 13 73  1  0
 14 74  1  0
 15 75  1  0
 19 76  1  0
 20 77  1  0
 23 78  1  0
 24 79  1  0
 25 80  1  0
 26 81  1  0
 26 82  1  0
 27 83  1  0
 27 84  1  0
 28 85  1  0
 28 86  1  0
 33 87  1  0
 34 88  1  1
 35 89  1  0
 35 90  1  0
 36 91  1  6
 37 92  1  0
 38 93  1  0
 39 94  1  0
 44 95  1  0
 45 96  1  0
 46 97  1  0
 47 98  1  0
 51 99  1  0
 52100  1  0
 55101  1  0
 56102  1  0
 57103  1  0
 58104  1  0
 58105  1  0
 59106  1  0
 59107  1  0
 60108  1  0
 60109  1  0
M  CHG  3  31  -1  32   2  63  -1
M  END
$$$$
