
     RDKit          3D

109114  0  0  0  0  0  0  0  0999 V2000
    4.3242    2.3966   -2.3500 O   0  0  0  0  0  0  0  0  0  0  0  0
    4.2733    1.2864   -1.4380 C   0  0  2  0  0  0  0  0  0  0  0  0
    2.7999    1.0768   -1.0576 C   0  0  0  0  0  0  0  0  0  0  0  0
    2.5618   -0.2603   -0.3525 C   0  0  2  0  0  0  0  0  0  0  0  0
    2.7514   -1.3228   -1.2820 O   0  0  0  0  0  0  0  0  0  0  0  0
    1.1793   -0.3434    0.2294 C   0  0  0  0  0  0  0  0  0  0  0  0
    0.1537   -1.0453   -0.2854 C   0  0  0  0  0  0  0  0  0  0  0  0
   -1.1744   -1.1182    0.3487 C   0  0  0  0  0  0  0  0  0  0  0  0
   -1.5935   -2.3417    0.9028 C   0  0  0  0  0  0  0  0  0  0  0  0
   -2.7954   -2.4646    1.5254 N   0  0  0  0  0  0  0  0  0  0  0  0
   -3.6206   -1.4135    1.5928 C   0  0  0  0  0  0  0  0  0  0  0  0
   -4.8388   -1.5914    2.2367 C   0  0  0  0  0  0  0  0  0  0  0  0
   -5.7688   -0.5588    2.3631 C   0  0  0  0  0  0  0  0  0  0  0  0
   -5.4799    0.6862    1.8284 C   0  0  0  0  0  0  0  0  0  0  0  0
   -4.2642    0.8907    1.1773 C   0  0  0  0  0  0  0  0  0  0  0  0
   -3.3062   -0.1499    1.0534 C   0  0  0  0  0  0  0  0  0  0  0  0
   -2.0398    0.0006    0.4216 C   0  0  0  0  0  0  0  0  0  0  0  0
   -1.6414    1.3041   -0.1584 C   0  0  0  0  0  0  0  0  0  0  0  0
   -1.7349    1.5339   -1.5424 C   0  0  0  0  0  0  0  0  0  0  0  0
   -1.3591    2.7623   -2.0878 C   0  0  0  0  0  0  0  0  0  0  0  0
   -0.8898    3.7664   -1.2538 C   0  0  0  0  0  0  0  0  0  0  0  0
   -0.5490    4.9502   -1.7771 F   0  0  0  0  0  0  0  0  0  0  0  0
   -0.7811    3.5646    0.1135 C   0  0  0  0  0  0  0  0  0  0  0  0
   -1.1607    2.3394    0.6615 C   0  0  0  0  0  0  0  0  0  0  0  0
   -0.7160   -3.5798    0.8709 C   0  0  0  0  0  0  0  0  0  0  0  0
   -1.3261   -4.9561    0.7582 C   0  0  0  0  0  0  0  0  0  0  0  0
   -0.5748   -4.3738   -0.4079 C   0  0  0  0  0  0  0  0  0  0  0  0
    5.1453    1.6131   -0.2275 C   0  0  0  0  0  0  0  0  0  0  0  0
    6.6158    1.5158   -0.6235 C   0  0  0  0  0  0  0  0  0  0  0  0
    7.3669    1.0158    0.2594 O   0  0  0  0  0  0  0  0  0  0  0  0
    6.8937    1.9500   -1.7809 O   0  0  0  0  0  0  0  0  0  0  0  0
    0.0000    0.0000    0.0000 Mg  0  0  0  0  0 15  0  0  0  0  0  0
    4.8563    0.0637   -1.5743 O   0  0  0  0  0  0  0  0  0  0  0  0
    4.5912    0.7656   -0.3370 C   0  0  2  0  0  0  0  0  0  0  0  0
    3.0885    0.6395   -0.0345 C   0  0  0  0  0  0  0  0  0  0  0  0
    2.6358   -0.8195    0.1231 C   0  0  2  0  0  0  0  0  0  0  0  0
    2.7808   -1.5286   -1.1088 O   0  0  0  0  0  0  0  0  0  0  0  0
    1.1976   -0.8578    0.5738 C   0  0  0  0  0  0  0  0  0  0  0  0
    0.1707   -1.3939   -0.1032 C   0  0  0  0  0  0  0  0  0  0  0  0
   -1.2213   -1.2412    0.3521 C   0  0  0  0  0  0  0  0  0  0  0  0
   -1.7728   -2.1317    1.2850 C   0  0  0  0  0  0  0  0  0  0  0  0
   -3.0674   -2.0160    1.6800 N   0  0  0  0  0  0  0  0  0  0  0  0
   -3.8293   -1.0210    1.2058 C   0  0  0  0  0  0  0  0  0  0  0  0
   -5.1424   -0.9442    1.6479 C   0  0  0  0  0  0  0  0  0  0  0  0
   -6.0145    0.0563    1.2128 C   0  0  0  0  0  0  0  0  0  0  0  0
   -5.5692    1.0090    0.3116 C   0  0  0  0  0  0  0  0  0  0  0  0
   -4.2567    0.9503   -0.1491 C   0  0  0  0  0  0  0  0  0  0  0  0
   -3.3649   -0.0656    0.2845 C   0  0  0  0  0  0  0  0  0  0  0  0
   -2.0229   -0.1894   -0.1602 C   0  0  0  0  0  0  0  0  0  0  0  0
   -1.4687    0.7541   -1.1594 C   0  0  0  0  0  0  0  0  0  0  0  0
   -0.7027    1.8620   -0.7532 C   0  0  0  0  0  0  0  0  0  0  0  0
   -0.1650    2.7414   -1.6957 C   0  0  0  0  0  0  0  0  0  0  0  0
   -0.3968    2.5180   -3.0464 C   0  0  0  0  0  0  0  0  0  0  0  0
    0.1274    3.3504   -3.9578 F   0  0  0  0  0  0  0  0  0  0  0  0
   -1.1569    1.4359   -3.4744 C   0  0  0  0  0  0  0  0  0  0  0  0
   -1.6913    0.5534   -2.5339 C   0  0  0  0  0  0  0  0  0  0  0  0
   -0.9813   -3.2861    1.8733 C   0  0  0  0  0  0  0  0  0  0  0  0
   -1.2949   -3.7988    3.2621 C   0  0  0  0  0  0  0  0  0  0  0  0
   -0.0307   -3.0328    3.0238 C   0  0  0  0  0  0  0  0  0  0  0  0
    5.0392    2.2188   -0.4732 C   0  0  0  0  0  0  0  0  0  0  0  0
    4.8928    2.9064    0.8726 C   0  0  0  0  0  0  0  0  0  0  0  0
    3.9601    3.7543    0.9344 O   0  0  0  0  0  0  0  0  0  0  0  0
    5.7110    2.5320    1.7580 O   0  0  0  0  0  0  0  0  0  0  0  0
    5.2998    2.5067   -2.5072 H   0  0  0  0  0  0  0  0  0  0  0  0
    4.6491    0.4101   -1.9820 H   0  0  0  0  0  0  0  0  0  0  0  0
    2.2007    1.1221   -1.9768 H   0  0  0  0  0  0  0  0  0  0  0  0
    2.4566    1.9148   -0.4382 H   0  0  0  0  0  0  0  0  0  0  0  0
    3.2698   -0.4035    0.4665 H   0  0  0  0  0  0  0  0  0  0  0  0
    3.2955   -1.9909   -0.8260 H   0  0  0  0  0  0  0  0  0  0  0  0
    1.0365    0.2190    1.1465 H   0  0  0  0  0  0  0  0  0  0  0  0
    0.2725   -1.6083   -1.2110 H   0  0  0  0  0  0  0  0  0  0  0  0
   -5.0659   -2.5701    2.6554 H   0  0  0  0  0  0  0  0  0  0  0  0
   -6.7106   -0.7372    2.8732 H   0  0  0  0  0  0  0  0  0  0  0  0
   -6.1921    1.5011    1.9183 H   0  0  0  0  0  0  0  0  0  0  0  0
   -4.0621    1.8777    0.7642 H   0  0  0  0  0  0  0  0  0  0  0  0
   -2.0946    0.7461   -2.2026 H   0  0  0  0  0  0  0  0  0  0  0  0
   -1.4223    2.9363   -3.1554 H   0  0  0  0  0  0  0  0  0  0  0  0
   -0.4018    4.3599    0.7436 H   0  0  0  0  0  0  0  0  0  0  0  0
   -1.0756    2.1880    1.7360 H   0  0  0  0  0  0  0  0  0  0  0  0
    0.1755   -3.5137    1.4927 H   0  0  0  0  0  0  0  0  0  0  0  0
   -2.4017   -5.0396    0.6659 H   0  0  0  0  0  0  0  0  0  0  0  0
   -0.8557   -5.7599    1.3118 H   0  0  0  0  0  0  0  0  0  0  0  0
   -1.1517   -4.0743   -1.2790 H   0  0  0  0  0  0  0  0  0  0  0  0
    0.4036   -4.7798   -0.6448 H   0  0  0  0  0  0  0  0  0  0  0  0
    4.9643    0.9267    0.6041 H   0  0  0  0  0  0  0  0  0  0  0  0
    4.9594    2.6350    0.1266 H   0  0  0  0  0  0  0  0  0  0  0  0
    5.1407    0.7411   -2.2165 H   0  0  0  0  0  0  0  0  0  0  0  0
    5.1699    0.2572    0.4471 H   0  0  0  0  0  0  0  0  0  0  0  0
    2.5288    1.0897   -0.8673 H   0  0  0  0  0  0  0  0  0  0  0  0
    2.8439    1.1961    0.8786 H   0  0  0  0  0  0  0  0  0  0  0  0
    3.2520   -1.3254    0.8711 H   0  0  0  0  0  0  0  0  0  0  0  0
    3.6125   -1.1834   -1.4991 H   0  0  0  0  0  0  0  0  0  0  0  0
    1.0088   -0.3555    1.5193 H   0  0  0  0  0  0  0  0  0  0  0  0
    0.3211   -1.8766   -1.0643 H   0  0  0  0  0  0  0  0  0  0  0  0
   -5.4961   -1.6906    2.3552 H   0  0  0  0  0  0  0  0  0  0  0  0
   -7.0363    0.0797    1.5790 H   0  0  0  0  0  0  0  0  0  0  0  0
   -6.2305    1.8037   -0.0249 H   0  0  0  0  0  0  0  0  0  0  0  0
   -3.9261    1.7088   -0.8548 H   0  0  0  0  0  0  0  0  0  0  0  0
   -0.4895    2.0255    0.3039 H   0  0  0  0  0  0  0  0  0  0  0  0
    0.4560    3.5766   -1.3783 H   0  0  0  0  0  0  0  0  0  0  0  0
   -1.3179    1.2773   -4.5347 H   0  0  0  0  0  0  0  0  0  0  0  0
   -2.2763   -0.3004   -2.8715 H   0  0  0  0  0  0  0  0  0  0  0  0
   -0.6682   -4.0334    1.1472 H   0  0  0  0  0  0  0  0  0  0  0  0
   -1.2289   -4.8676    3.4237 H   0  0  0  0  0  0  0  0  0  0  0  0
   -2.0762   -3.3114    3.8305 H   0  0  0  0  0  0  0  0  0  0  0  0
    0.9104   -3.5683    3.0131 H   0  0  0  0  0  0  0  0  0  0  0  0
    0.0418   -2.0280    3.4263 H   0  0  0  0  0  0  0  0  0  0  0  0
    4.4692    2.7392   -1.2525 H   0  0  0  0  0  0  0  0  0  0  0  0
    6.0890    2.2617   -0.7845 H   0  0  0  0  0  0  0  0  0  0  0  0
  2  1  1  0
  2  3  1  0
  3  4  1  0
  4  5  1  0
  4  6  1  0
  6  7  2  0
  7  8  1  0
  8  9  2  0
  9 10  1  0
 10 11  2  0
 11 12  1  0
 12 13  2  0
 13 14  1  0
 14 15  2  0
 15 16  1  0
 11 16  1  0
 16 17  2  0
  8 17  1  0
 17 18  1  0
 18 19  2  0
 19 20  1  0
 20 21  2  0
 21 22  1  0
 21 23  1  0
 23 24  2  0
 18 24  1  0
  9 25  1  0
 25 26  1  0
 26 27  1  0
 25 27  1  0
  2 28  1  0
 28 29  1  0
 29 30  2  0
 29 31  1  0
 34 33  1  0
 34 35  1  0
 35 36  1  0
 36 37  1  0
 36 38  1  0
 38 39  2  0
 39 40  1  0
 40 41  2  0
 41 42  1  0
 42 43  2  0
 43 44  1  0
 44 45  2  0
 45 46  1  0
 46 47  2  0
 47 48  1  0
 43 48  1  0
 48 49  2  0
 40 49  1  0
 49 50  1  0
 50 51  2  0
 51 52  1  0
 52 53  2  0
 53 54  1  0
 53 55  1  0
 55 56  2  0
 50 56  1  0
 41 57  1  0
 57 58  1  0
 58 59  1  0
 57 59  1  0
 34 60  1  0
 60 61  1  0
 61 62  2  0
 61 63  1  0
  1 64  1  0
  2 65  1  6
  3 66  1  0
  3 67  1  0
  4 68  1  1
  5 69  1  0
  6 70  1  0
  7 71  1  0
 12 72  1  0
 13 73  1  0
 14 74  1  0
 15 75  1  0
 19 76  1  0
 20 77  1  0
 23 78  1  0
 24 79  1  0
 25 80  1  0
 26 81  1  0
 26 82  1  0
 27 83  1  0
 27 84  1  0
 28 85  1  0
 28 86  1  0
 33 87  1  0
 34 88  1  1
 35 89  1  0
 35 90  1  0
 36 91  1  1
 37 92  1  0
 38 93  1  0
 39 94  1  0
 44 95  1  0
 45 96  1  0
 46 97  1  0
 47 98  1  0
 51 99  1  0
 52100  1  0
 55101  1  0
 56102  1  0
 57103  1  0
 58104  1  0
 58105  1  0
 59106  1  0
 59107  1  0
 60108  1  0
 60109  1  0
M  CHG  3  31  -1  32   2  63  -1
M  END
$$$$
