
     RDKit          3D

109114  0  0  0  0  0  0  0  0999 V2000
    5.2564   -0.8329   -0.7022 O   0  0  0  0  0  0  0  0  0  0  0  0
    4.6281   -0.2822    0.4590 C   0  0  2  0  0  0  0  0  0  0  0  0
    3.1613    0.0345    0.1403 C   0  0  0  0  0  0  0  0  0  0  0  0
    2.3802   -1.2515   -0.1766 C   0  0  2  0  0  0  0  0  0  0  0  0
    2.8218   -1.8510   -1.3915 O   0  0  0  0  0  0  0  0  0  0  0  0
    0.9131   -0.9851   -0.3427 C   0  0  0  0  0  0  0  0  0  0  0  0
    0.0271   -1.0883    0.6606 C   0  0  0  0  0  0  0  0  0  0  0  0
   -1.4234   -0.8642    0.5094 C   0  0  0  0  0  0  0  0  0  0  0  0
   -2.2974   -1.9443    0.7392 C   0  0  0  0  0  0  0  0  0  0  0  0
   -3.6480   -1.7895    0.6911 N   0  0  0  0  0  0  0  0  0  0  0  0
   -4.1710   -0.5924    0.3997 C   0  0  0  0  0  0  0  0  0  0  0  0
   -5.5551   -0.4827    0.3699 C   0  0  0  0  0  0  0  0  0  0  0  0
   -6.2016    0.7208    0.0831 C   0  0  0  0  0  0  0  0  0  0  0  0
   -5.4512    1.8562   -0.1691 C   0  0  0  0  0  0  0  0  0  0  0  0
   -4.0605    1.7698   -0.1432 C   0  0  0  0  0  0  0  0  0  0  0  0
   -3.3891    0.5481    0.1359 C   0  0  0  0  0  0  0  0  0  0  0  0
   -1.9715    0.4021    0.1868 C   0  0  0  0  0  0  0  0  0  0  0  0
   -1.0931    1.5625   -0.0828 C   0  0  0  0  0  0  0  0  0  0  0  0
   -0.5232    2.2968    0.9717 C   0  0  0  0  0  0  0  0  0  0  0  0
    0.2998    3.3955    0.7112 C   0  0  0  0  0  0  0  0  0  0  0  0
    0.5502    3.7668   -0.6051 C   0  0  0  0  0  0  0  0  0  0  0  0
    1.3070    4.8424   -0.8550 F   0  0  0  0  0  0  0  0  0  0  0  0
    0.0061    3.0538   -1.6662 C   0  0  0  0  0  0  0  0  0  0  0  0
   -0.8159    1.9549   -1.4068 C   0  0  0  0  0  0  0  0  0  0  0  0
   -1.7904   -3.3408    1.0746 C   0  0  0  0  0  0  0  0  0  0  0  0
   -1.0938   -4.1720    0.0211 C   0  0  0  0  0  0  0  0  0  0  0  0
   -2.4653   -4.5564    0.4802 C   0  0  0  0  0  0  0  0  0  0  0  0
    5.4211    0.8992    1.0043 C   0  0  0  0  0  0  0  0  0  0  0  0
    5.5718    2.0557    0.0210 C   0  0  0  0  0  0  0  0  0  0  0  0
    5.6426    1.7087   -1.1936 O   0  0  0  0  0  0  0  0  0  0  0  0
    5.6334    3.2025    0.5469 O   0  0  0  0  0  0  0  0  0  0  0  0
    0.0000    0.0000    0.0000 Mg  0  0  0  0  0 15  0  0  0  0  0  0
    2.9498   -1.2381   -0.2922 O   0  0  0  0  0  0  0  0  0  0  0  0
    3.4817   -0.3189    0.6768 C   0  0  2  0  0  0  0  0  0  0  0  0
    3.8479    0.9736   -0.0694 C   0  0  0  0  0  0  0  0  0  0  0  0
    2.6658    1.9225   -0.3430 C   0  0  2  0  0  0  0  0  0  0  0  0
    2.4179    2.6932    0.8343 O   0  0  0  0  0  0  0  0  0  0  0  0
    1.3999    1.2749   -0.8404 C   0  0  0  0  0  0  0  0  0  0  0  0
    0.1773    1.3654   -0.2922 C   0  0  0  0  0  0  0  0  0  0  0  0
   -0.9944    0.6265   -0.8123 C   0  0  0  0  0  0  0  0  0  0  0  0
   -1.5256    0.9067   -2.0854 C   0  0  0  0  0  0  0  0  0  0  0  0
   -2.5869    0.2118   -2.5848 N   0  0  0  0  0  0  0  0  0  0  0  0
   -3.1564   -0.7558   -1.8551 C   0  0  0  0  0  0  0  0  0  0  0  0
   -4.2314   -1.4422   -2.4093 C   0  0  0  0  0  0  0  0  0  0  0  0
   -4.8982   -2.4572   -1.7225 C   0  0  0  0  0  0  0  0  0  0  0  0
   -4.4817   -2.8044   -0.4481 C   0  0  0  0  0  0  0  0  0  0  0  0
   -3.4018   -2.1341    0.1243 C   0  0  0  0  0  0  0  0  0  0  0  0
   -2.7218   -1.0934   -0.5600 C   0  0  0  0  0  0  0  0  0  0  0  0
   -1.6227   -0.3655   -0.0185 C   0  0  0  0  0  0  0  0  0  0  0  0
   -1.1645   -0.6249    1.3654 C   0  0  0  0  0  0  0  0  0  0  0  0
   -1.8140   -0.0172    2.4558 C   0  0  0  0  0  0  0  0  0  0  0  0
   -1.3874   -0.2599    3.7632 C   0  0  0  0  0  0  0  0  0  0  0  0
   -0.3124   -1.1091    3.9905 C   0  0  0  0  0  0  0  0  0  0  0  0
    0.0765   -1.3474    5.2504 F   0  0  0  0  0  0  0  0  0  0  0  0
    0.3520   -1.7124    2.9324 C   0  0  0  0  0  0  0  0  0  0  0  0
   -0.0776   -1.4752    1.6228 C   0  0  0  0  0  0  0  0  0  0  0  0
   -0.9549    1.9919   -2.9869 C   0  0  0  0  0  0  0  0  0  0  0  0
   -1.8895    2.9143   -3.7380 C   0  0  0  0  0  0  0  0  0  0  0  0
   -1.0673    3.4553   -2.6108 C   0  0  0  0  0  0  0  0  0  0  0  0
    4.7127   -0.9531    1.3249 C   0  0  0  0  0  0  0  0  0  0  0  0
    4.2494   -2.1005    2.2182 C   0  0  0  0  0  0  0  0  0  0  0  0
    4.7119   -2.1022    3.3930 O   0  0  0  0  0  0  0  0  0  0  0  0
    3.4432   -2.9093    1.6681 O   0  0  0  0  0  0  0  0  0  0  0  0
    5.5197   -0.0264   -1.2288 H   0  0  0  0  0  0  0  0  0  0  0  0
    4.6533   -1.0723    1.2201 H   0  0  0  0  0  0  0  0  0  0  0  0
    3.1135    0.6990   -0.7315 H   0  0  0  0  0  0  0  0  0  0  0  0
    2.7059    0.5428    0.9966 H   0  0  0  0  0  0  0  0  0  0  0  0
    2.5357   -1.9924    0.6123 H   0  0  0  0  0  0  0  0  0  0  0  0
    3.7942   -1.6986   -1.4221 H   0  0  0  0  0  0  0  0  0  0  0  0
    0.5912   -0.7087   -1.3430 H   0  0  0  0  0  0  0  0  0  0  0  0
    0.3513   -1.3749    1.6588 H   0  0  0  0  0  0  0  0  0  0  0  0
   -6.1484   -1.3675    0.5840 H   0  0  0  0  0  0  0  0  0  0  0  0
   -7.2863    0.7672    0.0662 H   0  0  0  0  0  0  0  0  0  0  0  0
   -5.9383    2.8052   -0.3780 H   0  0  0  0  0  0  0  0  0  0  0  0
   -3.4950    2.6794   -0.3371 H   0  0  0  0  0  0  0  0  0  0  0  0
   -0.7089    2.0100    2.0046 H   0  0  0  0  0  0  0  0  0  0  0  0
    0.7650    3.9512    1.5213 H   0  0  0  0  0  0  0  0  0  0  0  0
    0.2353    3.3490   -2.6868 H   0  0  0  0  0  0  0  0  0  0  0  0
   -1.2290    1.3894   -2.2395 H   0  0  0  0  0  0  0  0  0  0  0  0
   -1.4307   -3.4597    2.0934 H   0  0  0  0  0  0  0  0  0  0  0  0
   -0.2454   -4.7608    0.3454 H   0  0  0  0  0  0  0  0  0  0  0  0
   -0.9855   -3.7701   -0.9793 H   0  0  0  0  0  0  0  0  0  0  0  0
   -2.5735   -5.4284    1.1151 H   0  0  0  0  0  0  0  0  0  0  0  0
   -3.2891   -4.4046   -0.2086 H   0  0  0  0  0  0  0  0  0  0  0  0
    6.4384    0.5687    1.2518 H   0  0  0  0  0  0  0  0  0  0  0  0
    4.9571    1.2650    1.9265 H   0  0  0  0  0  0  0  0  0  0  0  0
    2.9025   -2.0953    0.2054 H   0  0  0  0  0  0  0  0  0  0  0  0
    2.7087   -0.1260    1.4296 H   0  0  0  0  0  0  0  0  0  0  0  0
    4.3116    0.7087   -1.0313 H   0  0  0  0  0  0  0  0  0  0  0  0
    4.5913    1.5314    0.5141 H   0  0  0  0  0  0  0  0  0  0  0  0
    2.9980    2.6398   -1.1052 H   0  0  0  0  0  0  0  0  0  0  0  0
    1.7537    3.3577    0.6001 H   0  0  0  0  0  0  0  0  0  0  0  0
    1.5413    0.6438   -1.7164 H   0  0  0  0  0  0  0  0  0  0  0  0
    0.0122    1.9242    0.6234 H   0  0  0  0  0  0  0  0  0  0  0  0
   -4.5612   -1.1741   -3.4098 H   0  0  0  0  0  0  0  0  0  0  0  0
   -5.7304   -2.9742   -2.1891 H   0  0  0  0  0  0  0  0  0  0  0  0
   -4.9826   -3.5983    0.0977 H   0  0  0  0  0  0  0  0  0  0  0  0
   -3.0818   -2.4383    1.1182 H   0  0  0  0  0  0  0  0  0  0  0  0
   -2.6563    0.6502    2.2856 H   0  0  0  0  0  0  0  0  0  0  0  0
   -1.8843    0.2063    4.6069 H   0  0  0  0  0  0  0  0  0  0  0  0
    1.2126   -2.3514    3.1212 H   0  0  0  0  0  0  0  0  0  0  0  0
    0.4611   -1.9489    0.8028 H   0  0  0  0  0  0  0  0  0  0  0  0
   -0.0567    1.6983   -3.5222 H   0  0  0  0  0  0  0  0  0  0  0  0
   -2.9550    2.8029   -3.5815 H   0  0  0  0  0  0  0  0  0  0  0  0
   -1.6183    3.1776   -4.7514 H   0  0  0  0  0  0  0  0  0  0  0  0
   -1.5827    3.7212   -1.6962 H   0  0  0  0  0  0  0  0  0  0  0  0
   -0.2306    4.1007   -2.8510 H   0  0  0  0  0  0  0  0  0  0  0  0
    5.3963   -1.3602    0.5722 H   0  0  0  0  0  0  0  0  0  0  0  0
    5.2534   -0.2114    1.9253 H   0  0  0  0  0  0  0  0  0  0  0  0
  2  1  1  0
  2  3  1  0
  3  4  1  0
  4  5  1  0
  4  6  1  0
  6  7  2  0
  7  8  1  0
  8  9  2  0
  9 10  1  0
 10 11  2  0
 11 12  1  0
 12 13  2  0
 13 14  1  0
 14 15  2  0
 15 16  1  0
 11 16  1  0
 16 17  2  0
  8 17  1  0
 17 18  1  0
 18 19  2  0
 19 20  1  0
 20 21  2  0
 21 22  1  0
 21 23  1  0
 23 24  2  0
 18 24  1  0
  9 25  1  0
 25 26  1  0
 26 27  1  0
 25 27  1  0
  2 28  1  0
 28 29  1  0
 29 30  2  0
 29 31  1  0
 34 33  1  0
 34 35  1  0
 35 36  1  0
 36 37  1  0
 36 38  1  0
 38 39  2  0
 39 40  1  0
 40 41  2  0
 41 42  1  0
 42 43  2  0
 43 44  1  0
 44 45  2  0
 45 46  1  0
 46 47  2  0
 47 48  1  0
 43 48  1  0
 48 49  2  0
 40 49  1  0
 49 50  1  0
 50 51  2  0
 51 52  1  0
 52 53  2  0
 53 54  1  0
 53 55  1  0
 55 56  2  0
 50 56  1  0
 41 57  1  0
 57 58  1  0
 58 59  1  0
 57 59  1  0
 34 60  1  0
 60 61  1  0
 61 62  2  0
 61 63  1  0
  1 64  1  0
  2 65  1  1
  3 66  1  0
  3 67  1  0
  4 68  1  1
  5 69  1  0
  6 70  1  0
  7 71  1  0
 12 72  1  0
 13 73  1  0
 14 74  1  0
 15 75  1  0
 19 76  1  0
 20 77  1  0
 23 78  1  0
 24 79  1  0
 25 80  1  0
 26 81  1  0
 26 82  1  0
 27 83  1  0
 27 84  1  0
 28 85  1  0
 28 86  1  0
 33 87  1  0
 34 88  1  1
 35 89  1  0
 35 90  1  0
 36 91  1  6
 37 92  1  0
 38 93  1  0
 39 94  1  0
 44 95  1  0
 45 96  1  0
 46 97  1  0
 47 98  1  0
 51 99  1  0
 52100  1  0
 55101  1  0
 56102  1  0
 57103  1  0
 58104  1  0
 58105  1  0
 59106  1  0
 59107  1  0
 60108  1  0
 60109  1  0
M  CHG  3  31  -1  32   2  63  -1
M  END
$$$$
