
     RDKit          3D

 45 48  0  0  0  0  0  0  0  0999 V2000
   -3.5667   -0.8187   -0.4461 C   0  0  0  0  0  0  0  0  0  0  0  0
   -2.8653   -0.8873    0.7594 C   0  0  0  0  0  0  0  0  0  0  0  0
   -1.7054   -0.1008    0.9343 C   0  0  0  0  0  0  0  0  0  0  0  0
   -1.2831    0.8009   -0.0753 C   0  0  0  0  0  0  0  0  0  0  0  0
   -3.1781    0.0627   -1.4567 C   0  0  0  0  0  0  0  0  0  0  0  0
   -2.0439    0.9023   -1.2829 C   0  0  0  0  0  0  0  0  0  0  0  0
   -1.7256    1.8033   -2.3310 C   0  0  0  0  0  0  0  0  0  0  0  0
   -2.4901    1.8479   -3.4990 C   0  0  0  0  0  0  0  0  0  0  0  0
   -3.5880    1.0084   -3.6547 C   0  0  0  0  0  0  0  0  0  0  0  0
   -3.9340    0.1214   -2.6397 C   0  0  0  0  0  0  0  0  0  0  0  0
   -0.0152    1.6122    0.1929 C   0  0  0  0  0  0  0  0  0  0  0  0
    1.2310    0.7266    0.2316 C   0  0  0  0  0  0  0  0  0  0  0  0
    3.4961   -0.9579    0.1426 C   0  0  0  0  0  0  0  0  0  0  0  0
    2.7350   -0.7704   -1.0124 C   0  0  0  0  0  0  0  0  0  0  0  0
    1.6311    0.1111   -0.9811 C   0  0  0  0  0  0  0  0  0  0  0  0
    3.1587   -0.3231    1.3395 C   0  0  0  0  0  0  0  0  0  0  0  0
    2.0177    0.5226    1.4094 C   0  0  0  0  0  0  0  0  0  0  0  0
    1.7245    1.1298    2.6574 C   0  0  0  0  0  0  0  0  0  0  0  0
    2.5281    0.8997    3.7763 C   0  0  0  0  0  0  0  0  0  0  0  0
    3.6388    0.0676    3.6870 C   0  0  0  0  0  0  0  0  0  0  0  0
    3.9543   -0.5425    2.4766 C   0  0  0  0  0  0  0  0  0  0  0  0
   -0.9321   -0.2169    2.0934 O   0  0  0  0  0  0  0  0  0  0  0  0
   -3.3959   -1.7598    1.8300 C   0  0  0  0  0  0  0  0  0  0  0  0
   -3.3788   -1.3400    3.1572 O   0  0  0  0  0  0  0  0  0  0  0  0
   -3.9200   -2.8687    1.5383 O   0  0  0  0  0  0  0  0  0  0  0  0
    0.9335    0.4259   -2.1512 O   0  0  0  0  0  0  0  0  0  0  0  0
    3.1056   -1.5395   -2.2213 C   0  0  0  0  0  0  0  0  0  0  0  0
    4.4445   -1.8187   -2.4825 O   0  0  0  0  0  0  0  0  0  0  0  0
    2.2174   -1.9961   -2.9901 O   0  0  0  0  0  0  0  0  0  0  0  0
   -4.4516   -1.4315   -0.5832 H   0  0  0  0  0  0  0  0  0  0  0  0
   -0.8944    2.4841   -2.2914 H   0  0  0  0  0  0  0  0  0  0  0  0
   -2.2274    2.5393   -4.2896 H   0  0  0  0  0  0  0  0  0  0  0  0
   -4.1757    1.0486   -4.5628 H   0  0  0  0  0  0  0  0  0  0  0  0
   -4.7982   -0.5181   -2.7775 H   0  0  0  0  0  0  0  0  0  0  0  0
    0.1736    2.4139   -0.5372 H   0  0  0  0  0  0  0  0  0  0  0  0
   -0.1889    2.1904    1.1130 H   0  0  0  0  0  0  0  0  0  0  0  0
    4.3504   -1.6261    0.1157 H   0  0  0  0  0  0  0  0  0  0  0  0
    0.8823    1.7792    2.8145 H   0  0  0  0  0  0  0  0  0  0  0  0
    2.2854    1.3703    4.7207 H   0  0  0  0  0  0  0  0  0  0  0  0
    4.2565   -0.1063    4.5587 H   0  0  0  0  0  0  0  0  0  0  0  0
    4.8232   -1.1887    2.4289 H   0  0  0  0  0  0  0  0  0  0  0  0
   -1.0405   -0.9606    2.7692 H   0  0  0  0  0  0  0  0  0  0  0  0
   -3.7583   -1.9244    3.8926 H   0  0  0  0  0  0  0  0  0  0  0  0
    1.2558    0.1908   -3.0799 H   0  0  0  0  0  0  0  0  0  0  0  0
    4.7138   -2.3629   -3.2934 H   0  0  0  0  0  0  0  0  0  0  0  0
  1  5  2  0
  2  3  2  0
  3  4  1  0
  4  6  2  0
  5  6  1  0
  5 10  1  0
  6  7  1  0
  7  8  2  0
  8  9  1  0
  9 10  2  0
  4 11  1  0
 11 12  1  0
 12 17  2  0
 12 15  1  0
 16 13  2  0
 13 14  1  0
 14 15  2  0
 16 17  1  0
 16 21  1  0
 17 18  1  0
 18 19  2  0
 19 20  1  0
 20 21  2  0
  3 22  1  0
  2 23  1  0
 23 24  1  0
 23 25  2  0
 15 26  1  0
 14 27  1  0
  1  2  1  0
 27 28  1  0
 27 29  2  0
  1 30  1  0
  7 31  1  0
  8 32  1  0
  9 33  1  0
 10 34  1  0
 11 35  1  0
 11 36  1  0
 13 37  1  0
 18 38  1  0
 19 39  1  0
 20 40  1  0
 21 41  1  0
 22 42  1  0
 24 43  1  0
 26 44  1  0
 28 45  1  0
M  END
$$$$
