
     RDKit          3D

 45 48  0  0  0  0  0  0  0  0999 V2000
    3.2820    0.5894    1.1688 C   0  0  0  0  0  0  0  0  0  0  0  0
    2.3112   -0.1966    1.7936 C   0  0  0  0  0  0  0  0  0  0  0  0
    1.3004   -0.8041    1.0152 C   0  0  0  0  0  0  0  0  0  0  0  0
    1.2859   -0.6520   -0.3967 C   0  0  0  0  0  0  0  0  0  0  0  0
    3.3330    0.6975   -0.2218 C   0  0  0  0  0  0  0  0  0  0  0  0
    2.3662    0.0395   -1.0286 C   0  0  0  0  0  0  0  0  0  0  0  0
    2.5309    0.0987   -2.4354 C   0  0  0  0  0  0  0  0  0  0  0  0
    3.5714    0.8348   -3.0068 C   0  0  0  0  0  0  0  0  0  0  0  0
    4.4799    1.5125   -2.2001 C   0  0  0  0  0  0  0  0  0  0  0  0
    4.3692    1.4386   -0.8143 C   0  0  0  0  0  0  0  0  0  0  0  0
    0.1139   -1.2456   -1.1861 C   0  0  0  0  0  0  0  0  0  0  0  0
   -1.2502   -0.8128   -0.6520 C   0  0  0  0  0  0  0  0  0  0  0  0
   -3.7393   -0.0545    0.4381 C   0  0  0  0  0  0  0  0  0  0  0  0
   -3.3728   -1.4041    0.4376 C   0  0  0  0  0  0  0  0  0  0  0  0
   -2.1102   -1.7832   -0.0773 C   0  0  0  0  0  0  0  0  0  0  0  0
   -2.9113    0.9167   -0.1294 C   0  0  0  0  0  0  0  0  0  0  0  0
   -1.6701    0.5464   -0.7064 C   0  0  0  0  0  0  0  0  0  0  0  0
   -0.8915    1.5535   -1.3211 C   0  0  0  0  0  0  0  0  0  0  0  0
   -1.3179    2.8831   -1.3298 C   0  0  0  0  0  0  0  0  0  0  0  0
   -2.5283    3.2362   -0.7382 C   0  0  0  0  0  0  0  0  0  0  0  0
   -3.3259    2.2591   -0.1448 C   0  0  0  0  0  0  0  0  0  0  0  0
    0.2813   -1.5427    1.6238 O   0  0  0  0  0  0  0  0  0  0  0  0
    2.4059   -0.3911    3.2569 C   0  0  0  0  0  0  0  0  0  0  0  0
    2.1733   -1.6428    3.8200 O   0  0  0  0  0  0  0  0  0  0  0  0
    2.7560    0.5663    3.9988 O   0  0  0  0  0  0  0  0  0  0  0  0
   -1.6673   -3.1082    0.0079 O   0  0  0  0  0  0  0  0  0  0  0  0
   -4.3490   -2.3872    0.9575 C   0  0  0  0  0  0  0  0  0  0  0  0
   -5.1761   -2.0451    2.0240 O   0  0  0  0  0  0  0  0  0  0  0  0
   -4.4825   -3.5133    0.4078 O   0  0  0  0  0  0  0  0  0  0  0  0
    4.0458    1.0716    1.7701 H   0  0  0  0  0  0  0  0  0  0  0  0
    1.8971   -0.4342   -3.1229 H   0  0  0  0  0  0  0  0  0  0  0  0
    3.6778    0.8724   -4.0835 H   0  0  0  0  0  0  0  0  0  0  0  0
    5.2841    2.0807   -2.6497 H   0  0  0  0  0  0  0  0  0  0  0  0
    5.1028    1.9519   -0.2035 H   0  0  0  0  0  0  0  0  0  0  0  0
    0.1067   -0.9730   -2.2532 H   0  0  0  0  0  0  0  0  0  0  0  0
    0.2375   -2.3476   -1.1825 H   0  0  0  0  0  0  0  0  0  0  0  0
   -4.7003    0.2385    0.8474 H   0  0  0  0  0  0  0  0  0  0  0  0
    0.0416    1.3316   -1.8126 H   0  0  0  0  0  0  0  0  0  0  0  0
   -0.7075    3.6424   -1.8019 H   0  0  0  0  0  0  0  0  0  0  0  0
   -2.8545    4.2683   -0.7485 H   0  0  0  0  0  0  0  0  0  0  0  0
   -4.2710    2.5519    0.2975 H   0  0  0  0  0  0  0  0  0  0  0  0
    0.1013   -1.5406    2.6183 H   0  0  0  0  0  0  0  0  0  0  0  0
    2.2561   -1.7872    4.8192 H   0  0  0  0  0  0  0  0  0  0  0  0
   -2.1204   -3.8180    0.5667 H   0  0  0  0  0  0  0  0  0  0  0  0
   -5.8654   -2.6977    2.3778 H   0  0  0  0  0  0  0  0  0  0  0  0
  1  5  2  0
  2  3  2  0
  3  4  1  0
  4  6  2  0
  5  6  1  0
  5 10  1  0
  6  7  1  0
  7  8  2  0
  8  9  1  0
  9 10  2  0
  4 11  1  0
 11 12  1  0
 12 17  2  0
 12 15  1  0
 16 13  2  0
 13 14  1  0
 14 15  2  0
 16 17  1  0
 16 21  1  0
 17 18  1  0
 18 19  2  0
 19 20  1  0
 20 21  2  0
  3 22  1  0
  2 23  1  0
 23 24  1  0
 23 25  2  0
 15 26  1  0
 14 27  1  0
  1  2  1  0
 27 28  1  0
 27 29  2  0
  1 30  1  0
  7 31  1  0
  8 32  1  0
  9 33  1  0
 10 34  1  0
 11 35  1  0
 11 36  1  0
 13 37  1  0
 18 38  1  0
 19 39  1  0
 20 40  1  0
 21 41  1  0
 22 42  1  0
 24 43  1  0
 26 44  1  0
 28 45  1  0
M  END
$$$$
