
     RDKit          3D

 45 48  0  0  0  0  0  0  0  0999 V2000
    3.4490    1.1507    0.9907 C   0  0  0  0  0  0  0  0  0  0  0  0
    3.2757   -0.0906    1.6125 C   0  0  0  0  0  0  0  0  0  0  0  0
    2.3321   -1.0054    1.0910 C   0  0  0  0  0  0  0  0  0  0  0  0
    1.5039   -0.6368    0.0013 C   0  0  0  0  0  0  0  0  0  0  0  0
    2.6821    1.5132   -0.1190 C   0  0  0  0  0  0  0  0  0  0  0  0
    1.7012    0.6247   -0.6286 C   0  0  0  0  0  0  0  0  0  0  0  0
    0.9603    1.0259   -1.7640 C   0  0  0  0  0  0  0  0  0  0  0  0
    1.1721    2.2743   -2.3526 C   0  0  0  0  0  0  0  0  0  0  0  0
    2.1275    3.1435   -1.8314 C   0  0  0  0  0  0  0  0  0  0  0  0
    2.8823    2.7665   -0.7217 C   0  0  0  0  0  0  0  0  0  0  0  0
    0.4315   -1.6085   -0.4858 C   0  0  0  0  0  0  0  0  0  0  0  0
   -0.9868   -1.0815   -0.2544 C   0  0  0  0  0  0  0  0  0  0  0  0
   -3.5083    0.0863    0.2433 C   0  0  0  0  0  0  0  0  0  0  0  0
   -2.5726    0.0054    1.2777 C   0  0  0  0  0  0  0  0  0  0  0  0
   -1.3351   -0.6341    1.0457 C   0  0  0  0  0  0  0  0  0  0  0  0
   -3.2384   -0.4553   -1.0150 C   0  0  0  0  0  0  0  0  0  0  0  0
   -1.9828   -1.0661   -1.2793 C   0  0  0  0  0  0  0  0  0  0  0  0
   -1.7896   -1.6531   -2.5550 C   0  0  0  0  0  0  0  0  0  0  0  0
   -2.7817   -1.5829   -3.5356 C   0  0  0  0  0  0  0  0  0  0  0  0
   -3.9896   -0.9452   -3.2709 C   0  0  0  0  0  0  0  0  0  0  0  0
   -4.2220   -0.3889   -2.0159 C   0  0  0  0  0  0  0  0  0  0  0  0
    2.2159   -2.2956    1.6200 O   0  0  0  0  0  0  0  0  0  0  0  0
    4.0608   -0.3790    2.8328 C   0  0  0  0  0  0  0  0  0  0  0  0
    3.4783   -1.0479    3.9058 O   0  0  0  0  0  0  0  0  0  0  0  0
    5.2492    0.0305    2.9302 O   0  0  0  0  0  0  0  0  0  0  0  0
   -0.4482   -0.8751    2.0997 O   0  0  0  0  0  0  0  0  0  0  0  0
   -2.8991    0.6393    2.5743 C   0  0  0  0  0  0  0  0  0  0  0  0
   -1.9149    1.2986    3.3056 O   0  0  0  0  0  0  0  0  0  0  0  0
   -4.0860    0.6328    2.9998 O   0  0  0  0  0  0  0  0  0  0  0  0
    4.1755    1.8513    1.3888 H   0  0  0  0  0  0  0  0  0  0  0  0
    0.2229    0.3847   -2.2195 H   0  0  0  0  0  0  0  0  0  0  0  0
    0.5946    2.5667   -3.2202 H   0  0  0  0  0  0  0  0  0  0  0  0
    2.2878    4.1099   -2.2918 H   0  0  0  0  0  0  0  0  0  0  0  0
    3.6249    3.4546   -0.3349 H   0  0  0  0  0  0  0  0  0  0  0  0
    0.5012   -2.5982    0.0096 H   0  0  0  0  0  0  0  0  0  0  0  0
    0.6722   -1.8069   -1.5424 H   0  0  0  0  0  0  0  0  0  0  0  0
   -4.4595    0.5772    0.4208 H   0  0  0  0  0  0  0  0  0  0  0  0
   -0.9010   -2.1991   -2.8206 H   0  0  0  0  0  0  0  0  0  0  0  0
   -2.6145   -2.0342   -4.5054 H   0  0  0  0  0  0  0  0  0  0  0  0
   -4.7540   -0.8948   -4.0357 H   0  0  0  0  0  0  0  0  0  0  0  0
   -5.1765    0.0875   -1.8242 H   0  0  0  0  0  0  0  0  0  0  0  0
    2.8829   -2.6992    2.2635 H   0  0  0  0  0  0  0  0  0  0  0  0
    4.0042   -1.2312    4.7520 H   0  0  0  0  0  0  0  0  0  0  0  0
   -0.6928   -0.7644    3.0743 H   0  0  0  0  0  0  0  0  0  0  0  0
   -2.1351    1.7509    4.1849 H   0  0  0  0  0  0  0  0  0  0  0  0
  1  5  2  0
  2  3  2  0
  3  4  1  0
  4  6  2  0
  5  6  1  0
  5 10  1  0
  6  7  1  0
  7  8  2  0
  8  9  1  0
  9 10  2  0
  4 11  1  0
 11 12  1  0
 12 17  2  0
 12 15  1  0
 16 13  2  0
 13 14  1  0
 14 15  2  0
 16 17  1  0
 16 21  1  0
 17 18  1  0
 18 19  2  0
 19 20  1  0
 20 21  2  0
  3 22  1  0
  2 23  1  0
 23 24  1  0
 23 25  2  0
 15 26  1  0
 14 27  1  0
  1  2  1  0
 27 28  1  0
 27 29  2  0
  1 30  1  0
  7 31  1  0
  8 32  1  0
  9 33  1  0
 10 34  1  0
 11 35  1  0
 11 36  1  0
 13 37  1  0
 18 38  1  0
 19 39  1  0
 20 40  1  0
 21 41  1  0
 22 42  1  0
 24 43  1  0
 26 44  1  0
 28 45  1  0
M  END
$$$$
