
     RDKit          3D

 45 48  0  0  0  0  0  0  0  0999 V2000
   -3.5230    0.0227   -1.0720 C   0  0  0  0  0  0  0  0  0  0  0  0
   -3.3533    1.2120   -0.3560 C   0  0  0  0  0  0  0  0  0  0  0  0
   -2.3357    1.2966    0.6215 C   0  0  0  0  0  0  0  0  0  0  0  0
   -1.4182    0.2295    0.7972 C   0  0  0  0  0  0  0  0  0  0  0  0
   -2.7039   -1.0827   -0.8331 C   0  0  0  0  0  0  0  0  0  0  0  0
   -1.6563   -1.0013    0.1203 C   0  0  0  0  0  0  0  0  0  0  0  0
   -0.9048   -2.1679    0.3837 C   0  0  0  0  0  0  0  0  0  0  0  0
   -1.1416   -3.3492   -0.3222 C   0  0  0  0  0  0  0  0  0  0  0  0
   -2.1422   -3.4004   -1.2894 C   0  0  0  0  0  0  0  0  0  0  0  0
   -2.9268   -2.2762   -1.5402 C   0  0  0  0  0  0  0  0  0  0  0  0
   -0.2266    0.4211    1.7382 C   0  0  0  0  0  0  0  0  0  0  0  0
    1.1268    0.2014    1.0581 C   0  0  0  0  0  0  0  0  0  0  0  0
    3.5492   -0.4000   -0.2596 C   0  0  0  0  0  0  0  0  0  0  0  0
    3.1950   -1.1166    0.8871 C   0  0  0  0  0  0  0  0  0  0  0  0
    2.0102   -0.7770    1.5818 C   0  0  0  0  0  0  0  0  0  0  0  0
    2.7524    0.6465   -0.7283 C   0  0  0  0  0  0  0  0  0  0  0  0
    1.5436    0.9759   -0.0626 C   0  0  0  0  0  0  0  0  0  0  0  0
    0.8119    2.0916   -0.5262 C   0  0  0  0  0  0  0  0  0  0  0  0
    1.2303    2.8087   -1.6489 C   0  0  0  0  0  0  0  0  0  0  0  0
    2.3941    2.4439   -2.3211 C   0  0  0  0  0  0  0  0  0  0  0  0
    3.1581    1.3732   -1.8604 C   0  0  0  0  0  0  0  0  0  0  0  0
   -2.2322    2.4192    1.4507 O   0  0  0  0  0  0  0  0  0  0  0  0
   -4.2202    2.3634   -0.6903 C   0  0  0  0  0  0  0  0  0  0  0  0
   -3.7027    3.6557   -0.7060 O   0  0  0  0  0  0  0  0  0  0  0  0
   -5.4229    2.1743   -1.0177 O   0  0  0  0  0  0  0  0  0  0  0  0
    1.7005   -1.3770    2.8079 O   0  0  0  0  0  0  0  0  0  0  0  0
    4.0639   -2.2411    1.2999 C   0  0  0  0  0  0  0  0  0  0  0  0
    5.4391   -2.1665    1.0951 O   0  0  0  0  0  0  0  0  0  0  0  0
    3.5670   -3.2933    1.7840 O   0  0  0  0  0  0  0  0  0  0  0  0
   -4.3022   -0.0426   -1.8241 H   0  0  0  0  0  0  0  0  0  0  0  0
   -0.1573   -2.1981    1.1560 H   0  0  0  0  0  0  0  0  0  0  0  0
   -0.5524   -4.2322   -0.1097 H   0  0  0  0  0  0  0  0  0  0  0  0
   -2.3223   -4.3187   -1.8334 H   0  0  0  0  0  0  0  0  0  0  0  0
   -3.7152   -2.3422   -2.2809 H   0  0  0  0  0  0  0  0  0  0  0  0
   -0.3816   -0.2604    2.5992 H   0  0  0  0  0  0  0  0  0  0  0  0
   -0.2024    1.4351    2.1868 H   0  0  0  0  0  0  0  0  0  0  0  0
    4.4567   -0.6599   -0.7943 H   0  0  0  0  0  0  0  0  0  0  0  0
   -0.0633    2.4482   -0.0133 H   0  0  0  0  0  0  0  0  0  0  0  0
    0.6540    3.6583   -1.9922 H   0  0  0  0  0  0  0  0  0  0  0  0
    2.7147    3.0034   -3.1905 H   0  0  0  0  0  0  0  0  0  0  0  0
    4.0724    1.1186   -2.3836 H   0  0  0  0  0  0  0  0  0  0  0  0
   -2.9463    3.1315    1.5195 H   0  0  0  0  0  0  0  0  0  0  0  0
   -4.2856    4.4466   -0.9529 H   0  0  0  0  0  0  0  0  0  0  0  0
    2.3529   -1.9376    3.3389 H   0  0  0  0  0  0  0  0  0  0  0  0
    6.0457   -2.9363    1.3514 H   0  0  0  0  0  0  0  0  0  0  0  0
  1  5  2  0
  2  3  2  0
  3  4  1  0
  4  6  2  0
  5  6  1  0
  5 10  1  0
  6  7  1  0
  7  8  2  0
  8  9  1  0
  9 10  2  0
  4 11  1  0
 11 12  1  0
 12 17  2  0
 12 15  1  0
 16 13  2  0
 13 14  1  0
 14 15  2  0
 16 17  1  0
 16 21  1  0
 17 18  1  0
 18 19  2  0
 19 20  1  0
 20 21  2  0
  3 22  1  0
  2 23  1  0
 23 24  1  0
 23 25  2  0
 15 26  1  0
 14 27  1  0
  1  2  1  0
 27 28  1  0
 27 29  2  0
  1 30  1  0
  7 31  1  0
  8 32  1  0
  9 33  1  0
 10 34  1  0
 11 35  1  0
 11 36  1  0
 13 37  1  0
 18 38  1  0
 19 39  1  0
 20 40  1  0
 21 41  1  0
 22 42  1  0
 24 43  1  0
 26 44  1  0
 28 45  1  0
M  END
$$$$
