
     RDKit          3D

 45 48  0  0  0  0  0  0  0  0999 V2000
   -3.2006    1.1067    0.7190 C   0  0  0  0  0  0  0  0  0  0  0  0
   -2.0802    1.8732    0.3913 C   0  0  0  0  0  0  0  0  0  0  0  0
   -1.0844    1.3238   -0.4478 C   0  0  0  0  0  0  0  0  0  0  0  0
   -1.1525   -0.0335   -0.8541 C   0  0  0  0  0  0  0  0  0  0  0  0
   -3.3513   -0.1931    0.2318 C   0  0  0  0  0  0  0  0  0  0  0  0
   -2.3413   -0.7775   -0.5791 C   0  0  0  0  0  0  0  0  0  0  0  0
   -2.5785   -2.0761   -1.0955 C   0  0  0  0  0  0  0  0  0  0  0  0
   -3.7424   -2.7768   -0.7708 C   0  0  0  0  0  0  0  0  0  0  0  0
   -4.7017   -2.2030    0.0576 C   0  0  0  0  0  0  0  0  0  0  0  0
   -4.5128   -0.9156    0.5527 C   0  0  0  0  0  0  0  0  0  0  0  0
    0.0365   -0.6244   -1.6160 C   0  0  0  0  0  0  0  0  0  0  0  0
    1.3644   -0.3962   -0.8976 C   0  0  0  0  0  0  0  0  0  0  0  0
    3.8038    0.1201    0.4217 C   0  0  0  0  0  0  0  0  0  0  0  0
    3.5432    0.7344   -0.8081 C   0  0  0  0  0  0  0  0  0  0  0  0
    2.3405    0.4426   -1.4918 C   0  0  0  0  0  0  0  0  0  0  0  0
    2.8799   -0.7535    0.9999 C   0  0  0  0  0  0  0  0  0  0  0  0
    1.6498   -1.0238    0.3480 C   0  0  0  0  0  0  0  0  0  0  0  0
    0.7523   -1.9281    0.9612 C   0  0  0  0  0  0  0  0  0  0  0  0
    1.0590   -2.5198    2.1883 C   0  0  0  0  0  0  0  0  0  0  0  0
    2.2638   -2.2322    2.8251 C   0  0  0  0  0  0  0  0  0  0  0  0
    3.1730   -1.3557    2.2350 C   0  0  0  0  0  0  0  0  0  0  0  0
   -0.0358    2.1158   -0.9266 O   0  0  0  0  0  0  0  0  0  0  0  0
   -1.9673    3.2276    0.9772 C   0  0  0  0  0  0  0  0  0  0  0  0
   -3.1146    3.9832    1.2046 O   0  0  0  0  0  0  0  0  0  0  0  0
   -0.8462    3.6855    1.3265 O   0  0  0  0  0  0  0  0  0  0  0  0
    2.1023    0.9513   -2.7734 O   0  0  0  0  0  0  0  0  0  0  0  0
    4.5256    1.7122   -1.3254 C   0  0  0  0  0  0  0  0  0  0  0  0
    4.0978    2.8796   -1.9516 O   0  0  0  0  0  0  0  0  0  0  0  0
    5.7594    1.5197   -1.1511 O   0  0  0  0  0  0  0  0  0  0  0  0
   -3.9663    1.5276    1.3621 H   0  0  0  0  0  0  0  0  0  0  0  0
   -1.9050   -2.5690   -1.7750 H   0  0  0  0  0  0  0  0  0  0  0  0
   -3.9043   -3.7692   -1.1721 H   0  0  0  0  0  0  0  0  0  0  0  0
   -5.6013   -2.7519    0.3049 H   0  0  0  0  0  0  0  0  0  0  0  0
   -5.2804   -0.4798    1.1816 H   0  0  0  0  0  0  0  0  0  0  0  0
    0.0262   -0.1868   -2.6349 H   0  0  0  0  0  0  0  0  0  0  0  0
   -0.0271   -1.7122   -1.7783 H   0  0  0  0  0  0  0  0  0  0  0  0
    4.7283    0.3414    0.9446 H   0  0  0  0  0  0  0  0  0  0  0  0
   -0.1845   -2.2009    0.5025 H   0  0  0  0  0  0  0  0  0  0  0  0
    0.3596   -3.2083    2.6450 H   0  0  0  0  0  0  0  0  0  0  0  0
    2.4964   -2.6939    3.7760 H   0  0  0  0  0  0  0  0  0  0  0  0
    4.1076   -1.1497    2.7435 H   0  0  0  0  0  0  0  0  0  0  0  0
   -0.0099    3.1231   -0.8462 H   0  0  0  0  0  0  0  0  0  0  0  0
   -3.0567    4.9031    1.6249 H   0  0  0  0  0  0  0  0  0  0  0  0
    2.8112    1.3974   -3.3394 H   0  0  0  0  0  0  0  0  0  0  0  0
    4.7647    3.5626   -2.2905 H   0  0  0  0  0  0  0  0  0  0  0  0
  1  5  2  0
  2  3  2  0
  3  4  1  0
  4  6  2  0
  5  6  1  0
  5 10  1  0
  6  7  1  0
  7  8  2  0
  8  9  1  0
  9 10  2  0
  4 11  1  0
 11 12  1  0
 12 17  2  0
 12 15  1  0
 16 13  2  0
 13 14  1  0
 14 15  2  0
 16 17  1  0
 16 21  1  0
 17 18  1  0
 18 19  2  0
 19 20  1  0
 20 21  2  0
  3 22  1  0
  2 23  1  0
 23 24  1  0
 23 25  2  0
 15 26  1  0
 14 27  1  0
  1  2  1  0
 27 28  1  0
 27 29  2  0
  1 30  1  0
  7 31  1  0
  8 32  1  0
  9 33  1  0
 10 34  1  0
 11 35  1  0
 11 36  1  0
 13 37  1  0
 18 38  1  0
 19 39  1  0
 20 40  1  0
 21 41  1  0
 22 42  1  0
 24 43  1  0
 26 44  1  0
 28 45  1  0
M  END
$$$$
