
     RDKit          3D

 64 61  0  0  0  0  0  0  0  0999 V2000
   -0.0854    0.3885    0.0000 O   0  0  0  0  0  0  0  0  0  0  0  0
    3.1674   -0.1485    0.9173 C   0  0  0  0  0  0  0  0  0  0  0  0
    3.7251   -0.8949   -0.1058 C   0  0  0  0  0  0  0  0  0  0  0  0
    3.0835   -1.1820   -1.2555 N   0  0  0  0  0  0  0  0  0  0  0  0
    1.8229   -0.7031   -1.3813 C   0  0  0  0  0  0  0  0  0  0  0  0
    1.1569    0.0506   -0.4129 C   0  0  0  0  0  0  0  0  0  0  0  0
    1.8694    0.3334    0.7567 C   0  0  0  0  0  0  0  0  0  0  0  0
   -0.2374    0.5550   -0.6956 C   0  0  1  0  0  0  0  0  0  0  0  0
   -1.2308   -0.4738   -1.0977 N   0  0  0  0  0  0  0  0  0  0  0  0
   -2.5047    0.2660   -1.1213 C   0  0  0  0  0  0  0  0  0  0  0  0
   -2.4262    1.3016   -0.0050 C   0  0  0  0  0  0  0  0  0  0  0  0
   -0.9569    1.3504    0.3981 C   0  0  0  0  0  0  0  0  0  0  0  0
   -1.3182   -1.6056   -0.1672 C   0  0  0  0  0  0  0  0  0  0  0  0
    1.9705    1.7627   -0.1942 O   0  0  0  0  0  0  0  0  0  0  0  0
    0.6627    1.1620    1.5122 O   0  0  0  0  0  0  0  0  0  0  0  0
    0.9039    0.1486   -1.9264 O   0  0  0  0  0  0  0  0  0  0  0  0
    0.4878   -1.8252   -0.0521 O   0  0  0  0  0  0  0  0  0  0  0  0
   -2.3211    0.3381    0.8625 O   0  0  0  0  0  0  0  0  0  0  0  0
   -1.5414   -1.5356    1.7896 O   0  0  0  0  0  0  0  0  0  0  0  0
    0.8928    1.1154    0.3174 C   0  0  0  0  0  0  0  0  0  0  0  0
    0.0732    0.4417   -0.7851 C   0  0  2  0  0  0  0  0  0  0  0  0
   -0.5454   -0.8739   -0.3090 C   0  0  2  0  0  0  0  0  0  0  0  0
   -1.5406   -0.6027    0.8189 C   0  0  0  0  0  0  0  0  0  0  0  0
   -0.7899    1.4043   -1.4829 O   0  0  0  0  0  0  0  0  0  0  0  0
   -2.7289    0.5317   -0.8025 O   0  0  0  0  0  0  0  0  0  0  0  0
   -1.4960   -1.3137    0.8264 O   0  0  0  0  0  0  0  0  0  0  0  0
    0.6432   -0.5674    1.9691 O   0  0  0  0  0  0  0  0  0  0  0  0
    1.9111   -0.4423   -1.2294 O   0  0  0  0  0  0  0  0  0  0  0  0
    2.8114    0.6059    0.5184 O   0  0  0  0  0  0  0  0  0  0  0  0
   -1.5065    0.5000   -0.7931 C   0  0  0  0  0  0  0  0  0  0  0  0
   -0.6702   -0.5596   -0.0897 C   0  0  1  0  0  0  0  0  0  0  0  0
    0.4750    0.0919    0.7035 C   0  0  2  0  0  0  0  0  0  0  0  0
    1.7636    0.0329   -0.1138 C   0  0  0  0  0  0  0  0  0  0  0  0
   -0.0766    0.3904    0.0000 O   0  0  0  0  0  0  0  0  0  0  0  0
   -0.7030   -0.3582    0.0000 H   0  0  0  0  0  0  0  0  0  0  0  0
    0.7884   -0.0303    0.0000 H   0  0  0  0  0  0  0  0  0  0  0  0
    3.7320    0.0582    1.8195 H   0  0  0  0  0  0  0  0  0  0  0  0
    4.7334   -1.2903   -0.0265 H   0  0  0  0  0  0  0  0  0  0  0  0
    1.3354   -0.9548   -2.3213 H   0  0  0  0  0  0  0  0  0  0  0  0
    1.4362    0.9304    1.5535 H   0  0  0  0  0  0  0  0  0  0  0  0
   -0.1223    1.2358   -1.5538 H   0  0  0  0  0  0  0  0  0  0  0  0
   -3.3873   -0.3776   -1.0331 H   0  0  0  0  0  0  0  0  0  0  0  0
   -2.5899    0.7790   -2.0876 H   0  0  0  0  0  0  0  0  0  0  0  0
   -2.7736    2.2791   -0.3558 H   0  0  0  0  0  0  0  0  0  0  0  0
   -3.0431    1.0108    0.8522 H   0  0  0  0  0  0  0  0  0  0  0  0
   -0.5907    2.3804    0.4653 H   0  0  0  0  0  0  0  0  0  0  0  0
   -0.8428    0.8932    1.3881 H   0  0  0  0  0  0  0  0  0  0  0  0
   -1.5521   -1.3088    0.8610 H   0  0  0  0  0  0  0  0  0  0  0  0
   -0.3885   -2.1836   -0.1556 H   0  0  0  0  0  0  0  0  0  0  0  0
   -2.0978   -2.3008   -0.5002 H   0  0  0  0  0  0  0  0  0  0  0  0
    2.4060    2.1444    0.5997 H   0  0  0  0  0  0  0  0  0  0  0  0
    1.5168    0.9094   -1.9989 H   0  0  0  0  0  0  0  0  0  0  0  0
    1.0487   -1.8218   -0.8519 H   0  0  0  0  0  0  0  0  0  0  0  0
   -2.1847   -1.2103    2.4512 H   0  0  0  0  0  0  0  0  0  0  0  0
   -0.6931    1.1539   -1.1076 H   0  0  0  0  0  0  0  0  0  0  0  0
   -1.1358   -1.3068   -1.1262 H   0  0  0  0  0  0  0  0  0  0  0  0
   -1.4582    1.9805   -1.9153 H   0  0  0  0  0  0  0  0  0  0  0  0
   -2.3786   -1.3792    0.4074 H   0  0  0  0  0  0  0  0  0  0  0  0
   -0.0793   -1.2291    2.0175 H   0  0  0  0  0  0  0  0  0  0  0  0
    3.5709    0.4705   -0.0841 H   0  0  0  0  0  0  0  0  0  0  0  0
   -0.3286   -1.2724   -0.8461 H   0  0  0  0  0  0  0  0  0  0  0  0
    0.2612    1.1459    0.9147 H   0  0  0  0  0  0  0  0  0  0  0  0
   -0.7109   -0.3423    0.0000 H   0  0  0  0  0  0  0  0  0  0  0  0
    0.7875   -0.0482    0.0000 H   0  0  0  0  0  0  0  0  0  0  0  0
  7  2  2  0
  2  3  1  0
  8  6  1  0
  8  9  1  0
  4  5  1  0
  5  6  2  0
  3  4  2  0
  9 10  1  0
 10 11  1  0
 11 12  1  0
  8 12  1  0
  6  7  1  0
  9 13  1  0
 20 15  2  0
 21 16  1  0
 22 17  1  0
 20 14  1  0
 22 23  1  0
 21 22  1  0
 23 19  1  0
 20 21  1  0
 23 18  2  0
 30 25  2  0
 31 26  1  0
 32 27  1  0
 30 24  1  0
 32 33  1  0
 31 32  1  0
 33 29  1  0
 30 31  1  0
 33 28  2  0
  1 35  1  0
  1 36  1  0
  2 37  1  0
  3 38  1  0
  5 39  1  0
  7 40  1  0
  8 41  1  6
 10 42  1  0
 10 43  1  0
 11 44  1  0
 11 45  1  0
 12 46  1  0
 12 47  1  0
 13 48  1  0
 13 49  1  0
 13 50  1  0
 14 51  1  0
 16 52  1  0
 17 53  1  0
 19 54  1  0
 21 55  1  6
 22 56  1  6
 24 57  1  0
 26 58  1  0
 27 59  1  0
 29 60  1  0
 31 61  1  6
 32 62  1  1
 34 63  1  0
 34 64  1  0
M  END
$$$$
