
     RDKit          3D

 64 61  0  0  0  0  0  0  0  0999 V2000
   -0.0680    0.3922    0.0000 O   0  0  0  0  0  0  0  0  0  0  0  0
    2.9509    0.5244   -1.1107 C   0  0  0  0  0  0  0  0  0  0  0  0
    3.7796    0.3505   -0.0156 C   0  0  0  0  0  0  0  0  0  0  0  0
    3.3397   -0.0026    1.2109 N   0  0  0  0  0  0  0  0  0  0  0  0
    2.0056   -0.1854    1.3454 C   0  0  0  0  0  0  0  0  0  0  0  0
    1.0800   -0.0304    0.3165 C   0  0  0  0  0  0  0  0  0  0  0  0
    1.5837    0.3282   -0.9392 C   0  0  0  0  0  0  0  0  0  0  0  0
   -0.3866   -0.2855    0.5640 C   0  0  1  0  0  0  0  0  0  0  0  0
   -1.2701    0.6534   -0.1554 N   0  0  0  0  0  0  0  0  0  0  0  0
   -2.5164   -0.0675   -0.4087 C   0  0  0  0  0  0  0  0  0  0  0  0
   -2.0045   -1.4235   -0.8496 C   0  0  0  0  0  0  0  0  0  0  0  0
   -0.8165   -1.6780    0.0688 C   0  0  0  0  0  0  0  0  0  0  0  0
   -1.4891    1.8977    0.5703 C   0  0  0  0  0  0  0  0  0  0  0  0
    2.4816   -1.0181   -0.4231 O   0  0  0  0  0  0  0  0  0  0  0  0
    2.1999   -0.2686    1.6665 O   0  0  0  0  0  0  0  0  0  0  0  0
   -0.4703   -0.9216    1.5415 O   0  0  0  0  0  0  0  0  0  0  0  0
    0.4696    0.9421   -1.5319 O   0  0  0  0  0  0  0  0  0  0  0  0
   -2.1912    0.2405   -1.6660 O   0  0  0  0  0  0  0  0  0  0  0  0
   -2.4929    1.0308    0.4046 O   0  0  0  0  0  0  0  0  0  0  0  0
    1.7078   -0.6133    0.6010 C   0  0  0  0  0  0  0  0  0  0  0  0
    0.2173   -0.6605    0.3070 C   0  0  2  0  0  0  0  0  0  0  0  0
   -0.2206    0.6726   -0.3022 C   0  0  2  0  0  0  0  0  0  0  0  0
   -1.7087    0.6129   -0.6058 C   0  0  0  0  0  0  0  0  0  0  0  0
    1.7578    2.2820   -0.0657 O   0  0  0  0  0  0  0  0  0  0  0  0
    2.3776    0.5108   -1.2690 O   0  0  0  0  0  0  0  0  0  0  0  0
   -0.8185    1.6578    0.0270 O   0  0  0  0  0  0  0  0  0  0  0  0
   -0.0038   -0.3153    1.6245 O   0  0  0  0  0  0  0  0  0  0  0  0
   -1.6638   -1.6121   -1.3146 O   0  0  0  0  0  0  0  0  0  0  0  0
   -1.7766   -2.0857    0.8669 O   0  0  0  0  0  0  0  0  0  0  0  0
    1.4883    1.1202   -0.6952 C   0  0  0  0  0  0  0  0  0  0  0  0
    0.0321    0.6813   -0.5801 C   0  0  1  0  0  0  0  0  0  0  0  0
   -0.0041   -0.6214    0.2206 C   0  0  2  0  0  0  0  0  0  0  0  0
   -1.2202   -1.4464   -0.1914 C   0  0  0  0  0  0  0  0  0  0  0  0
   -0.0440    0.3953    0.0000 O   0  0  0  0  0  0  0  0  0  0  0  0
   -0.7186   -0.3266    0.0000 H   0  0  0  0  0  0  0  0  0  0  0  0
    0.7866   -0.0656    0.0000 H   0  0  0  0  0  0  0  0  0  0  0  0
    3.3589    0.8062   -2.0751 H   0  0  0  0  0  0  0  0  0  0  0  0
    4.8529    0.4941   -0.0990 H   0  0  0  0  0  0  0  0  0  0  0  0
    1.6938   -0.4734    2.3461 H   0  0  0  0  0  0  0  0  0  0  0  0
    0.9092    0.4602   -1.7821 H   0  0  0  0  0  0  0  0  0  0  0  0
   -0.5908   -0.2335    1.6434 H   0  0  0  0  0  0  0  0  0  0  0  0
   -3.1266   -0.1653    0.4988 H   0  0  0  0  0  0  0  0  0  0  0  0
   -3.1154    0.4104   -1.1911 H   0  0  0  0  0  0  0  0  0  0  0  0
   -2.7652   -2.2062   -0.7737 H   0  0  0  0  0  0  0  0  0  0  0  0
   -1.6648   -1.3815   -1.8921 H   0  0  0  0  0  0  0  0  0  0  0  0
   -1.1390   -2.2869    0.9237 H   0  0  0  0  0  0  0  0  0  0  0  0
   -0.0330   -2.2333   -0.4597 H   0  0  0  0  0  0  0  0  0  0  0  0
   -1.9559    1.7334    1.5486 H   0  0  0  0  0  0  0  0  0  0  0  0
   -2.1363    2.5653   -0.0093 H   0  0  0  0  0  0  0  0  0  0  0  0
   -0.5440    2.4293    0.7248 H   0  0  0  0  0  0  0  0  0  0  0  0
    3.3996   -0.9250   -0.0937 H   0  0  0  0  0  0  0  0  0  0  0  0
   -0.0194   -0.3983    2.2354 H   0  0  0  0  0  0  0  0  0  0  0  0
    0.0485    0.3896   -2.2218 H   0  0  0  0  0  0  0  0  0  0  0  0
   -3.4095    0.9068    0.0791 H   0  0  0  0  0  0  0  0  0  0  0  0
    0.0168   -1.5042   -0.3633 H   0  0  0  0  0  0  0  0  0  0  0  0
   -0.0286    1.5143    0.3729 H   0  0  0  0  0  0  0  0  0  0  0  0
    2.7100    2.4417   -0.2329 H   0  0  0  0  0  0  0  0  0  0  0  0
   -0.4839    1.7469    0.9424 H   0  0  0  0  0  0  0  0  0  0  0  0
   -0.3985   -1.0966    2.0626 H   0  0  0  0  0  0  0  0  0  0  0  0
   -2.5437   -2.5587    0.4756 H   0  0  0  0  0  0  0  0  0  0  0  0
   -0.3215    0.5506   -1.6088 H   0  0  0  0  0  0  0  0  0  0  0  0
    0.8687   -1.2550    0.0230 H   0  0  0  0  0  0  0  0  0  0  0  0
   -0.7369   -0.2822    0.0000 H   0  0  0  0  0  0  0  0  0  0  0  0
    0.7809   -0.1131    0.0000 H   0  0  0  0  0  0  0  0  0  0  0  0
  7  2  2  0
  2  3  1  0
  8  6  1  0
  8  9  1  0
  4  5  1  0
  5  6  2  0
  3  4  2  0
  9 10  1  0
 10 11  1  0
 11 12  1  0
  8 12  1  0
  6  7  1  0
  9 13  1  0
 20 15  2  0
 21 16  1  0
 22 17  1  0
 20 14  1  0
 22 23  1  0
 21 22  1  0
 23 19  1  0
 20 21  1  0
 23 18  2  0
 30 25  2  0
 31 26  1  0
 32 27  1  0
 30 24  1  0
 32 33  1  0
 31 32  1  0
 33 29  1  0
 30 31  1  0
 33 28  2  0
  1 35  1  0
  1 36  1  0
  2 37  1  0
  3 38  1  0
  5 39  1  0
  7 40  1  0
  8 41  1  1
 10 42  1  0
 10 43  1  0
 11 44  1  0
 11 45  1  0
 12 46  1  0
 12 47  1  0
 13 48  1  0
 13 49  1  0
 13 50  1  0
 14 51  1  0
 16 52  1  0
 17 53  1  0
 19 54  1  0
 21 55  1  6
 22 56  1  1
 24 57  1  0
 26 58  1  0
 27 59  1  0
 29 60  1  0
 31 61  1  6
 32 62  1  1
 34 63  1  0
 34 64  1  0
M  END
$$$$
