
     RDKit          3D

 64 61  0  0  0  0  0  0  0  0999 V2000
   -0.0032    0.3978    0.0000 O   0  0  0  0  0  0  0  0  0  0  0  0
    3.3055    0.8523    0.8460 C   0  0  0  0  0  0  0  0  0  0  0  0
    3.7250    0.2553   -0.3305 C   0  0  0  0  0  0  0  0  0  0  0  0
    2.8970   -0.3786   -1.1857 N   0  0  0  0  0  0  0  0  0  0  0  0
    1.5853   -0.4120   -0.8487 C   0  0  0  0  0  0  0  0  0  0  0  0
    1.0547    0.1564    0.3074 C   0  0  0  0  0  0  0  0  0  0  0  0
    1.9520    0.7979    1.1682 C   0  0  0  0  0  0  0  0  0  0  0  0
   -0.4112    0.0576    0.6472 C   0  0  1  0  0  0  0  0  0  0  0  0
   -1.3019    0.2552   -0.5117 N   0  0  0  0  0  0  0  0  0  0  0  0
   -2.5425   -0.4482   -0.1873 C   0  0  0  0  0  0  0  0  0  0  0  0
   -2.0233   -1.7482    0.3938 C   0  0  0  0  0  0  0  0  0  0  0  0
   -0.7866   -1.3349    1.1817 C   0  0  0  0  0  0  0  0  0  0  0  0
   -1.5328    1.6612   -0.8187 C   0  0  0  0  0  0  0  0  0  0  0  0
    2.0143   -0.6513    0.9993 O   0  0  0  0  0  0  0  0  0  0  0  0
    0.8179   -2.3726    0.2276 O   0  0  0  0  0  0  0  0  0  0  0  0
   -0.5267   -0.7758   -1.6277 O   0  0  0  0  0  0  0  0  0  0  0  0
   -0.3514    2.0337   -1.1696 O   0  0  0  0  0  0  0  0  0  0  0  0
   -2.3961    1.1537    0.4945 O   0  0  0  0  0  0  0  0  0  0  0  0
   -0.9811    0.0388    1.8015 O   0  0  0  0  0  0  0  0  0  0  0  0
    1.0850   -1.1802    0.1836 C   0  0  0  0  0  0  0  0  0  0  0  0
    0.5042   -0.1913   -0.8188 C   0  0  2  0  0  0  0  0  0  0  0  0
   -0.0242    1.0760   -0.1490 C   0  0  2  0  0  0  0  0  0  0  0  0
   -1.2534    0.7765    0.7057 C   0  0  0  0  0  0  0  0  0  0  0  0
    2.2710    1.6928   -0.3272 O   0  0  0  0  0  0  0  0  0  0  0  0
    2.1279   -0.1272   -1.6196 O   0  0  0  0  0  0  0  0  0  0  0  0
   -0.0310    1.4030    0.8580 O   0  0  0  0  0  0  0  0  0  0  0  0
    0.2574   -1.1903    1.3864 O   0  0  0  0  0  0  0  0  0  0  0  0
   -2.2802   -1.0211   -1.2034 O   0  0  0  0  0  0  0  0  0  0  0  0
   -2.3729   -1.2162    1.0184 O   0  0  0  0  0  0  0  0  0  0  0  0
    1.5986    0.6232   -0.8180 C   0  0  0  0  0  0  0  0  0  0  0  0
    0.1679    0.5648   -0.2922 C   0  0  1  0  0  0  0  0  0  0  0  0
   -0.1882   -0.8796    0.0632 C   0  0  2  0  0  0  0  0  0  0  0  0
   -1.6900   -1.0521   -0.1341 C   0  0  0  0  0  0  0  0  0  0  0  0
   -0.0255    0.3970    0.0000 O   0  0  0  0  0  0  0  0  0  0  0  0
    0.7650   -0.1928    0.0000 H   0  0  0  0  0  0  0  0  0  0  0  0
   -0.7618   -0.2050    0.0000 H   0  0  0  0  0  0  0  0  0  0  0  0
    4.0165    1.3468    1.4978 H   0  0  0  0  0  0  0  0  0  0  0  0
    4.7702    0.2705   -0.6247 H   0  0  0  0  0  0  0  0  0  0  0  0
    0.9466   -0.9285   -1.5616 H   0  0  0  0  0  0  0  0  0  0  0  0
    1.6038    1.2559    2.0902 H   0  0  0  0  0  0  0  0  0  0  0  0
   -0.6553    0.7934    1.4272 H   0  0  0  0  0  0  0  0  0  0  0  0
   -3.1621   -0.6220   -1.0725 H   0  0  0  0  0  0  0  0  0  0  0  0
   -3.1353    0.0920    0.5619 H   0  0  0  0  0  0  0  0  0  0  0  0
   -2.7644   -2.2515    1.0219 H   0  0  0  0  0  0  0  0  0  0  0  0
   -1.7366   -2.4371   -0.4105 H   0  0  0  0  0  0  0  0  0  0  0  0
    0.0038   -2.0859    1.0721 H   0  0  0  0  0  0  0  0  0  0  0  0
   -1.0312   -1.2675    2.2488 H   0  0  0  0  0  0  0  0  0  0  0  0
   -2.1945    1.7564   -1.6867 H   0  0  0  0  0  0  0  0  0  0  0  0
   -0.5946    2.1616   -1.0810 H   0  0  0  0  0  0  0  0  0  0  0  0
   -1.9881    2.2020    0.0187 H   0  0  0  0  0  0  0  0  0  0  0  0
    2.2945   -1.3969    1.5733 H   0  0  0  0  0  0  0  0  0  0  0  0
   -0.2753   -1.7105   -1.7657 H   0  0  0  0  0  0  0  0  0  0  0  0
   -1.0902    1.6343   -1.6724 H   0  0  0  0  0  0  0  0  0  0  0  0
   -1.8552   -0.0527    2.2399 H   0  0  0  0  0  0  0  0  0  0  0  0
    1.3110    0.0685   -1.5143 H   0  0  0  0  0  0  0  0  0  0  0  0
    0.7268    1.5497    0.4920 H   0  0  0  0  0  0  0  0  0  0  0  0
    3.1626    1.6160   -0.7324 H   0  0  0  0  0  0  0  0  0  0  0  0
    0.6631    2.0921    0.8008 H   0  0  0  0  0  0  0  0  0  0  0  0
   -0.2020   -0.5437    1.9609 H   0  0  0  0  0  0  0  0  0  0  0  0
   -3.3068   -1.3190    0.7405 H   0  0  0  0  0  0  0  0  0  0  0  0
   -0.4632    0.9631   -1.0949 H   0  0  0  0  0  0  0  0  0  0  0  0
    0.2857   -1.6058   -0.6064 H   0  0  0  0  0  0  0  0  0  0  0  0
    0.7746   -0.1495    0.0000 H   0  0  0  0  0  0  0  0  0  0  0  0
   -0.7491   -0.2475    0.0000 H   0  0  0  0  0  0  0  0  0  0  0  0
  7  2  2  0
  2  3  1  0
  8  6  1  0
  8  9  1  0
  4  5  1  0
  5  6  2  0
  3  4  2  0
  9 10  1  0
 10 11  1  0
 11 12  1  0
  8 12  1  0
  6  7  1  0
  9 13  1  0
 20 15  2  0
 21 16  1  0
 22 17  1  0
 20 14  1  0
 22 23  1  0
 21 22  1  0
 23 19  1  0
 20 21  1  0
 23 18  2  0
 30 25  2  0
 31 26  1  0
 32 27  1  0
 30 24  1  0
 32 33  1  0
 31 32  1  0
 33 29  1  0
 30 31  1  0
 33 28  2  0
  1 35  1  0
  1 36  1  0
  2 37  1  0
  3 38  1  0
  5 39  1  0
  7 40  1  0
  8 41  1  1
 10 42  1  0
 10 43  1  0
 11 44  1  0
 11 45  1  0
 12 46  1  0
 12 47  1  0
 13 48  1  0
 13 49  1  0
 13 50  1  0
 14 51  1  0
 16 52  1  0
 17 53  1  0
 19 54  1  0
 21 55  1  6
 22 56  1  1
 24 57  1  0
 26 58  1  0
 27 59  1  0
 29 60  1  0
 31 61  1  6
 32 62  1  6
 34 63  1  0
 34 64  1  0
M  END
$$$$
