
     RDKit          3D

 42 44  0  0  0  0  0  0  0  0999 V2000
   -0.5909    0.5843   -0.1449 C   0  0  0  0  0  0  0  0  0  0  0  0
   -1.5378    1.8279   -0.1622 C   0  0  0  0  0  0  0  0  0  0  0  0
   -1.1988   -0.6601    0.5707 C   0  0  0  0  0  0  0  0  0  0  0  0
   -3.1847    0.4902   -1.6697 C   0  0  0  0  0  0  0  0  0  0  0  0
   -3.0098   -0.7857   -1.2945 C   0  0  0  0  0  0  0  0  0  0  0  0
   -2.7712    1.7471   -0.8266 C   0  0  0  0  0  0  0  0  0  0  0  0
   -2.3628   -1.2515    0.0566 C   0  0  0  0  0  0  0  0  0  0  0  0
    0.5921    0.6055   -0.7757 C   0  0  0  0  0  0  0  0  0  0  0  0
    3.8221   -1.3694   -0.1370 N   0  0  0  0  0  0  0  0  0  0  0  0
    1.5664   -0.5359   -0.9051 C   0  0  0  0  0  0  0  0  0  0  0  0
   -0.6481   -1.1188    1.7717 C   0  0  0  0  0  0  0  0  0  0  0  0
   -1.1978    2.9783    0.5567 C   0  0  0  0  0  0  0  0  0  0  0  0
    2.8683   -0.2435   -0.1384 C   0  0  0  0  0  0  0  0  0  0  0  0
   -2.9544   -2.3158    0.7448 C   0  0  0  0  0  0  0  0  0  0  0  0
   -3.6508    2.8330   -0.7749 C   0  0  0  0  0  0  0  0  0  0  0  0
    4.9219   -1.0913    0.7904 C   0  0  0  0  0  0  0  0  0  0  0  0
    4.3582   -1.6384   -1.4725 C   0  0  0  0  0  0  0  0  0  0  0  0
   -1.2414   -2.1848    2.4479 C   0  0  0  0  0  0  0  0  0  0  0  0
   -2.0797    4.0581    0.5985 C   0  0  0  0  0  0  0  0  0  0  0  0
   -3.3045    3.9852   -0.0652 C   0  0  0  0  0  0  0  0  0  0  0  0
   -2.3932   -2.7817    1.9358 C   0  0  0  0  0  0  0  0  0  0  0  0
   -3.6221    0.6751   -2.6482 H   0  0  0  0  0  0  0  0  0  0  0  0
   -3.3147   -1.5652   -1.9891 H   0  0  0  0  0  0  0  0  0  0  0  0
    0.8915    1.5244   -1.2772 H   0  0  0  0  0  0  0  0  0  0  0  0
    1.7721   -0.6685   -1.9734 H   0  0  0  0  0  0  0  0  0  0  0  0
    1.1339   -1.4787   -0.5534 H   0  0  0  0  0  0  0  0  0  0  0  0
    0.2388   -0.6459    2.1842 H   0  0  0  0  0  0  0  0  0  0  0  0
   -0.2549    3.0301    1.0939 H   0  0  0  0  0  0  0  0  0  0  0  0
    3.3433    0.6619   -0.5406 H   0  0  0  0  0  0  0  0  0  0  0  0
    2.5944   -0.0183    0.9014 H   0  0  0  0  0  0  0  0  0  0  0  0
   -3.8540   -2.7875    0.3586 H   0  0  0  0  0  0  0  0  0  0  0  0
   -4.6093    2.7883   -1.2851 H   0  0  0  0  0  0  0  0  0  0  0  0
    4.5418   -0.9462    1.8078 H   0  0  0  0  0  0  0  0  0  0  0  0
    5.6126   -1.9408    0.8357 H   0  0  0  0  0  0  0  0  0  0  0  0
    5.4898   -0.1990    0.5025 H   0  0  0  0  0  0  0  0  0  0  0  0
    3.5717   -1.9726   -2.1560 H   0  0  0  0  0  0  0  0  0  0  0  0
    4.8481   -0.7591   -1.9062 H   0  0  0  0  0  0  0  0  0  0  0  0
    5.0899   -2.4538   -1.4359 H   0  0  0  0  0  0  0  0  0  0  0  0
   -0.8092   -2.5448    3.3778 H   0  0  0  0  0  0  0  0  0  0  0  0
   -1.8168    4.9523    1.1575 H   0  0  0  0  0  0  0  0  0  0  0  0
   -3.9934    4.8250   -0.0269 H   0  0  0  0  0  0  0  0  0  0  0  0
   -2.8569   -3.6094    2.4660 H   0  0  0  0  0  0  0  0  0  0  0  0
  2  1  1  0
  3  1  1  0
  4  6  1  0
  5  7  1  0
  6  2  2  0
  7  3  2  0
  8  1  2  3
  9 13  1  0
 10  8  1  0
 11  3  1  0
 12  2  1  0
 13 10  1  0
 14  7  1  0
 15  6  1  0
 16  9  1  0
 17  9  1  0
 18 11  2  0
 19 12  2  0
 20 19  1  0
 21 18  1  0
  5  4  2  0
 21 14  2  0
 20 15  2  0
  4 22  1  0
  5 23  1  0
  8 24  1  0
 10 25  1  0
 10 26  1  0
 11 27  1  0
 12 28  1  0
 13 29  1  0
 13 30  1  0
 14 31  1  0
 15 32  1  0
 16 33  1  0
 16 34  1  0
 16 35  1  0
 17 36  1  0
 17 37  1  0
 17 38  1  0
 18 39  1  0
 19 40  1  0
 20 41  1  0
 21 42  1  0
M  END
$$$$
