
     RDKit          3D

 42 44  0  0  0  0  0  0  0  0999 V2000
   -0.6012    0.4918   -0.4650 C   0  0  0  0  0  0  0  0  0  0  0  0
   -1.0035   -0.4615    0.7015 C   0  0  0  0  0  0  0  0  0  0  0  0
   -1.6908    1.5554   -0.8150 C   0  0  0  0  0  0  0  0  0  0  0  0
   -2.9017   -1.4151   -0.8016 C   0  0  0  0  0  0  0  0  0  0  0  0
   -3.2579   -0.3791   -1.5759 C   0  0  0  0  0  0  0  0  0  0  0  0
   -2.1140   -1.3055    0.5505 C   0  0  0  0  0  0  0  0  0  0  0  0
   -2.9471    1.1291   -1.2729 C   0  0  0  0  0  0  0  0  0  0  0  0
    0.5239    0.3854   -1.1866 C   0  0  0  0  0  0  0  0  0  0  0  0
    4.0299   -0.9583   -0.3862 N   0  0  0  0  0  0  0  0  0  0  0  0
    1.6065   -0.6476   -1.0159 C   0  0  0  0  0  0  0  0  0  0  0  0
   -1.4463    2.9130   -0.5858 C   0  0  0  0  0  0  0  0  0  0  0  0
   -0.3258   -0.4012    1.9237 C   0  0  0  0  0  0  0  0  0  0  0  0
    2.8900   -0.0225   -0.4427 C   0  0  0  0  0  0  0  0  0  0  0  0
   -3.9480    2.0762   -1.5104 C   0  0  0  0  0  0  0  0  0  0  0  0
   -2.5208   -2.1037    1.6245 C   0  0  0  0  0  0  0  0  0  0  0  0
    5.2562   -0.2301   -0.0491 C   0  0  0  0  0  0  0  0  0  0  0  0
    3.8100   -2.0293    0.5888 C   0  0  0  0  0  0  0  0  0  0  0  0
   -2.4497    3.8506   -0.8303 C   0  0  0  0  0  0  0  0  0  0  0  0
   -0.7356   -1.2047    2.9876 C   0  0  0  0  0  0  0  0  0  0  0  0
   -1.8312   -2.0546    2.8381 C   0  0  0  0  0  0  0  0  0  0  0  0
   -3.6986    3.4328   -1.2904 C   0  0  0  0  0  0  0  0  0  0  0  0
   -3.1538   -2.4155   -1.1458 H   0  0  0  0  0  0  0  0  0  0  0  0
   -3.7785   -0.5973   -2.5056 H   0  0  0  0  0  0  0  0  0  0  0  0
    0.6813    1.0849   -2.0061 H   0  0  0  0  0  0  0  0  0  0  0  0
    1.2600   -1.4702   -0.3834 H   0  0  0  0  0  0  0  0  0  0  0  0
    1.8162   -1.0846   -2.0004 H   0  0  0  0  0  0  0  0  0  0  0  0
   -0.4822    3.2403   -0.2070 H   0  0  0  0  0  0  0  0  0  0  0  0
    0.5129    0.2769    2.0522 H   0  0  0  0  0  0  0  0  0  0  0  0
    2.6895    0.4000    0.5512 H   0  0  0  0  0  0  0  0  0  0  0  0
    3.1640    0.8209   -1.0915 H   0  0  0  0  0  0  0  0  0  0  0  0
   -4.9259    1.7643   -1.8676 H   0  0  0  0  0  0  0  0  0  0  0  0
   -3.3769   -2.7655    1.5234 H   0  0  0  0  0  0  0  0  0  0  0  0
    6.1184   -0.9065   -0.0473 H   0  0  0  0  0  0  0  0  0  0  0  0
    5.1936    0.2529    0.9329 H   0  0  0  0  0  0  0  0  0  0  0  0
    5.4674    0.5393   -0.8002 H   0  0  0  0  0  0  0  0  0  0  0  0
    4.6875   -2.6841    0.6444 H   0  0  0  0  0  0  0  0  0  0  0  0
    2.9760   -2.6725    0.2921 H   0  0  0  0  0  0  0  0  0  0  0  0
    3.6107   -1.6394    1.5935 H   0  0  0  0  0  0  0  0  0  0  0  0
   -2.2611    4.9062   -0.6527 H   0  0  0  0  0  0  0  0  0  0  0  0
   -0.2081   -1.1596    3.9367 H   0  0  0  0  0  0  0  0  0  0  0  0
   -2.1540   -2.6759    3.6696 H   0  0  0  0  0  0  0  0  0  0  0  0
   -4.4812    4.1642   -1.4755 H   0  0  0  0  0  0  0  0  0  0  0  0
  2  1  1  0
  3  1  1  0
  4  6  1  0
  5  7  1  0
  6  2  2  0
  7  3  2  0
  8  1  2  3
  9 13  1  0
 10  8  1  0
 11  3  1  0
 12  2  1  0
 13 10  1  0
 14  7  1  0
 15  6  1  0
 16  9  1  0
 17  9  1  0
 18 11  2  0
 19 12  2  0
 20 19  1  0
 21 18  1  0
  5  4  2  0
 21 14  2  0
 20 15  2  0
  4 22  1  0
  5 23  1  0
  8 24  1  0
 10 25  1  0
 10 26  1  0
 11 27  1  0
 12 28  1  0
 13 29  1  0
 13 30  1  0
 14 31  1  0
 15 32  1  0
 16 33  1  0
 16 34  1  0
 16 35  1  0
 17 36  1  0
 17 37  1  0
 17 38  1  0
 18 39  1  0
 19 40  1  0
 20 41  1  0
 21 42  1  0
M  END
$$$$
