
     RDKit          3D

 42 44  0  0  0  0  0  0  0  0999 V2000
   -0.5113    0.7299    0.0130 C   0  0  0  0  0  0  0  0  0  0  0  0
   -1.4199    1.9802   -0.2160 C   0  0  0  0  0  0  0  0  0  0  0  0
   -1.0736   -0.5809   -0.6169 C   0  0  0  0  0  0  0  0  0  0  0  0
   -3.2511    0.8507    1.2496 C   0  0  0  0  0  0  0  0  0  0  0  0
   -3.0701   -0.4631    1.0479 C   0  0  0  0  0  0  0  0  0  0  0  0
   -2.7188    1.9939    0.3153 C   0  0  0  0  0  0  0  0  0  0  0  0
   -2.2972   -1.0949   -0.1621 C   0  0  0  0  0  0  0  0  0  0  0  0
    0.5960    0.8035    0.7654 C   0  0  0  0  0  0  0  0  0  0  0  0
    3.8422   -1.2442    0.8528 N   0  0  0  0  0  0  0  0  0  0  0  0
    1.5054   -0.3373    1.1398 C   0  0  0  0  0  0  0  0  0  0  0  0
   -0.4149   -1.1811   -1.6951 C   0  0  0  0  0  0  0  0  0  0  0  0
   -0.9749    3.0341   -1.0201 C   0  0  0  0  0  0  0  0  0  0  0  0
    2.8596   -0.2326    0.4175 C   0  0  0  0  0  0  0  0  0  0  0  0
   -2.8388   -2.2266   -0.7800 C   0  0  0  0  0  0  0  0  0  0  0  0
   -3.5595    3.0779    0.0437 C   0  0  0  0  0  0  0  0  0  0  0  0
    3.4454   -2.5976    0.4566 C   0  0  0  0  0  0  0  0  0  0  0  0
    5.1596   -0.9334    0.2909 C   0  0  0  0  0  0  0  0  0  0  0  0
   -0.9600   -2.3125   -2.3018 C   0  0  0  0  0  0  0  0  0  0  0  0
   -1.8193    4.1132   -1.2813 C   0  0  0  0  0  0  0  0  0  0  0  0
   -3.1096    4.1344   -0.7515 C   0  0  0  0  0  0  0  0  0  0  0  0
   -2.1698   -2.8345   -1.8448 C   0  0  0  0  0  0  0  0  0  0  0  0
   -3.7836    1.1566    2.1474 H   0  0  0  0  0  0  0  0  0  0  0  0
   -3.4662   -1.1497    1.7927 H   0  0  0  0  0  0  0  0  0  0  0  0
    0.8718    1.7686    1.1876 H   0  0  0  0  0  0  0  0  0  0  0  0
    1.0270   -1.2983    0.9294 H   0  0  0  0  0  0  0  0  0  0  0  0
    1.6620   -0.3035    2.2253 H   0  0  0  0  0  0  0  0  0  0  0  0
    0.5153   -0.7638   -2.0699 H   0  0  0  0  0  0  0  0  0  0  0  0
    0.0215    3.0113   -1.4523 H   0  0  0  0  0  0  0  0  0  0  0  0
    3.2697    0.7645    0.6290 H   0  0  0  0  0  0  0  0  0  0  0  0
    2.7096   -0.2848   -0.6694 H   0  0  0  0  0  0  0  0  0  0  0  0
   -3.7841   -2.6396   -0.4380 H   0  0  0  0  0  0  0  0  0  0  0  0
   -4.5675    3.1064    0.4490 H   0  0  0  0  0  0  0  0  0  0  0  0
    2.5280   -2.9083    0.9656 H   0  0  0  0  0  0  0  0  0  0  0  0
    4.2116   -3.3242    0.7513 H   0  0  0  0  0  0  0  0  0  0  0  0
    3.2915   -2.6834   -0.6251 H   0  0  0  0  0  0  0  0  0  0  0  0
    5.9083   -1.6522    0.6424 H   0  0  0  0  0  0  0  0  0  0  0  0
    5.4980    0.0543    0.6236 H   0  0  0  0  0  0  0  0  0  0  0  0
    5.1553   -0.9467   -0.8051 H   0  0  0  0  0  0  0  0  0  0  0  0
   -0.4474   -2.7803   -3.1382 H   0  0  0  0  0  0  0  0  0  0  0  0
   -1.4747    4.9331   -1.9060 H   0  0  0  0  0  0  0  0  0  0  0  0
   -3.7682    4.9735   -0.9602 H   0  0  0  0  0  0  0  0  0  0  0  0
   -2.5973   -3.7126   -2.3221 H   0  0  0  0  0  0  0  0  0  0  0  0
  2  1  1  0
  3  1  1  0
  4  6  1  0
  5  7  1  0
  6  2  2  0
  7  3  2  0
  8  1  2  3
  9 13  1  0
 10  8  1  0
 11  3  1  0
 12  2  1  0
 13 10  1  0
 14  7  1  0
 15  6  1  0
 16  9  1  0
 17  9  1  0
 18 11  2  0
 19 12  2  0
 20 19  1  0
 21 18  1  0
  5  4  2  0
 21 14  2  0
 20 15  2  0
  4 22  1  0
  5 23  1  0
  8 24  1  0
 10 25  1  0
 10 26  1  0
 11 27  1  0
 12 28  1  0
 13 29  1  0
 13 30  1  0
 14 31  1  0
 15 32  1  0
 16 33  1  0
 16 34  1  0
 16 35  1  0
 17 36  1  0
 17 37  1  0
 17 38  1  0
 18 39  1  0
 19 40  1  0
 20 41  1  0
 21 42  1  0
M  END
$$$$
