
     RDKit          3D

 42 44  0  0  0  0  0  0  0  0999 V2000
   -0.4893    0.5897    0.7645 C   0  0  0  0  0  0  0  0  0  0  0  0
   -0.8726   -0.9150    0.6289 C   0  0  0  0  0  0  0  0  0  0  0  0
   -1.7195    1.5409    0.9114 C   0  0  0  0  0  0  0  0  0  0  0  0
   -1.9916   -0.3645   -1.6551 C   0  0  0  0  0  0  0  0  0  0  0  0
   -2.4331    0.8937   -1.5074 C   0  0  0  0  0  0  0  0  0  0  0  0
   -1.6209   -1.3366   -0.4806 C   0  0  0  0  0  0  0  0  0  0  0  0
   -2.6516    1.6241   -0.1349 C   0  0  0  0  0  0  0  0  0  0  0  0
    0.7522    1.0788    0.6331 C   0  0  0  0  0  0  0  0  0  0  0  0
    3.7487   -0.1969   -1.4489 N   0  0  0  0  0  0  0  0  0  0  0  0
    2.0077    0.2881    0.3780 C   0  0  0  0  0  0  0  0  0  0  0  0
   -1.9348    2.2329    2.1068 C   0  0  0  0  0  0  0  0  0  0  0  0
   -0.5634   -1.8153    1.6533 C   0  0  0  0  0  0  0  0  0  0  0  0
    2.5324    0.5312   -1.0498 C   0  0  0  0  0  0  0  0  0  0  0  0
   -3.7929    2.4156    0.0255 C   0  0  0  0  0  0  0  0  0  0  0  0
   -2.0307   -2.6708   -0.5655 C   0  0  0  0  0  0  0  0  0  0  0  0
    3.5425   -1.6419   -1.5019 C   0  0  0  0  0  0  0  0  0  0  0  0
    4.9058    0.1387   -0.6255 C   0  0  0  0  0  0  0  0  0  0  0  0
   -3.0743    3.0236    2.2553 C   0  0  0  0  0  0  0  0  0  0  0  0
   -0.9722   -3.1454    1.5578 C   0  0  0  0  0  0  0  0  0  0  0  0
   -1.7041   -3.5725    0.4500 C   0  0  0  0  0  0  0  0  0  0  0  0
   -4.0022    3.1135    1.2173 C   0  0  0  0  0  0  0  0  0  0  0  0
   -1.8544   -0.7386   -2.6672 H   0  0  0  0  0  0  0  0  0  0  0  0
   -2.6289    1.4707   -2.4085 H   0  0  0  0  0  0  0  0  0  0  0  0
    0.8894    2.1578    0.6856 H   0  0  0  0  0  0  0  0  0  0  0  0
    1.8405   -0.7800    0.5399 H   0  0  0  0  0  0  0  0  0  0  0  0
    2.7535    0.6020    1.1173 H   0  0  0  0  0  0  0  0  0  0  0  0
   -1.2251    2.1483    2.9250 H   0  0  0  0  0  0  0  0  0  0  0  0
   -0.0120   -1.4807    2.5277 H   0  0  0  0  0  0  0  0  0  0  0  0
    1.7382    0.2940   -1.7710 H   0  0  0  0  0  0  0  0  0  0  0  0
    2.7208    1.6053   -1.1828 H   0  0  0  0  0  0  0  0  0  0  0  0
   -4.5243    2.4939   -0.7746 H   0  0  0  0  0  0  0  0  0  0  0  0
   -2.6085   -3.0148   -1.4193 H   0  0  0  0  0  0  0  0  0  0  0  0
    4.4137   -2.1323   -1.9508 H   0  0  0  0  0  0  0  0  0  0  0  0
    3.3815   -2.0831   -0.5126 H   0  0  0  0  0  0  0  0  0  0  0  0
    2.6842   -1.8896   -2.1361 H   0  0  0  0  0  0  0  0  0  0  0  0
    4.8090   -0.2193    0.4051 H   0  0  0  0  0  0  0  0  0  0  0  0
    5.8147   -0.3020   -1.0507 H   0  0  0  0  0  0  0  0  0  0  0  0
    5.0654    1.2223   -0.6031 H   0  0  0  0  0  0  0  0  0  0  0  0
   -3.2439    3.5620    3.1840 H   0  0  0  0  0  0  0  0  0  0  0  0
   -0.7296   -3.8461    2.3523 H   0  0  0  0  0  0  0  0  0  0  0  0
   -2.0279   -4.6077    0.3796 H   0  0  0  0  0  0  0  0  0  0  0  0
   -4.8923    3.7259    1.3368 H   0  0  0  0  0  0  0  0  0  0  0  0
  2  1  1  0
  3  1  1  0
  4  6  1  0
  5  7  1  0
  6  2  2  0
  7  3  2  0
  8  1  2  3
  9 13  1  0
 10  8  1  0
 11  3  1  0
 12  2  1  0
 13 10  1  0
 14  7  1  0
 15  6  1  0
 16  9  1  0
 17  9  1  0
 18 11  2  0
 19 12  2  0
 20 19  1  0
 21 18  1  0
  5  4  2  0
 21 14  2  0
 20 15  2  0
  4 22  1  0
  5 23  1  0
  8 24  1  0
 10 25  1  0
 10 26  1  0
 11 27  1  0
 12 28  1  0
 13 29  1  0
 13 30  1  0
 14 31  1  0
 15 32  1  0
 16 33  1  0
 16 34  1  0
 16 35  1  0
 17 36  1  0
 17 37  1  0
 17 38  1  0
 18 39  1  0
 19 40  1  0
 20 41  1  0
 21 42  1  0
M  END
$$$$
