
     RDKit          3D

 73 70  0  0  0  0  0  0  0  0999 V2000
    0.0021    0.3985    0.0000 O   0  0  0  0  0  0  0  0  0  0  0  0
    5.2878    2.3793   -2.0798 Br  0  0  0  0  0  0  0  0  0  0  0  0
    1.5711   -2.1886    1.4709 O   0  0  0  0  0  0  0  0  0  0  0  0
   -4.3613    1.7301   -1.2376 O   0  0  0  0  0  0  0  0  0  0  0  0
   -2.5538    1.0975   -2.5110 O   0  0  0  0  0  0  0  0  0  0  0  0
   -0.7027   -1.1427   -1.3322 N   0  0  0  0  0  0  0  0  0  0  0  0
   -0.2401   -0.7927    1.0707 C   0  0  0  0  0  0  0  0  0  0  0  0
   -1.1036   -0.7565   -0.0404 C   0  0  0  0  0  0  0  0  0  0  0  0
    1.1862   -1.1405    0.9455 C   0  0  0  0  0  0  0  0  0  0  0  0
   -2.4649   -0.4503    0.1838 C   0  0  0  0  0  0  0  0  0  0  0  0
    2.1354   -0.2527    0.2143 C   0  0  0  0  0  0  0  0  0  0  0  0
   -0.6933   -0.4729    2.3674 C   0  0  0  0  0  0  0  0  0  0  0  0
   -2.8935   -0.0693    1.4706 C   0  0  0  0  0  0  0  0  0  0  0  0
   -2.0164   -0.0886    2.5613 C   0  0  0  0  0  0  0  0  0  0  0  0
   -3.4650   -0.4490   -0.9471 C   0  0  0  0  0  0  0  0  0  0  0  0
    3.4778   -0.6698    0.1208 C   0  0  0  0  0  0  0  0  0  0  0  0
    1.7498    0.9560   -0.3836 C   0  0  0  0  0  0  0  0  0  0  0  0
    4.0148    1.3108   -1.1678 C   0  0  0  0  0  0  0  0  0  0  0  0
    4.4106    0.1130   -0.5671 C   0  0  0  0  0  0  0  0  0  0  0  0
    2.6853    1.7284   -1.0836 C   0  0  0  0  0  0  0  0  0  0  0  0
   -3.4591    0.9216   -1.6305 C   0  0  0  0  0  0  0  0  0  0  0  0
    5.0802    3.6707   -1.2893 Br  0  0  0  0  0  0  0  0  0  0  0  0
    1.5052   -2.1161   -1.0835 O   0  0  0  0  0  0  0  0  0  0  0  0
   -3.6155    0.2753   -1.8689 O   0  0  0  0  0  0  0  0  0  0  0  0
   -4.9477    1.0360   -0.1864 O   0  0  0  0  0  0  0  0  0  0  0  0
   -1.4771   -1.3041   -1.5498 N   0  0  0  0  0  0  0  0  0  0  0  0
    0.0410   -0.9663    0.3562 C   0  0  0  0  0  0  0  0  0  0  0  0
   -1.2505   -1.0590   -0.1915 C   0  0  0  0  0  0  0  0  0  0  0  0
    1.2348   -1.0725   -0.5033 C   0  0  0  0  0  0  0  0  0  0  0  0
   -2.3555   -0.9123    0.6718 C   0  0  0  0  0  0  0  0  0  0  0  0
    2.1425    0.0952   -0.6439 C   0  0  0  0  0  0  0  0  0  0  0  0
    0.2443   -0.7042    1.7192 C   0  0  0  0  0  0  0  0  0  0  0  0
   -2.1429   -0.6581    2.0439 C   0  0  0  0  0  0  0  0  0  0  0  0
   -0.8500   -0.5512    2.5639 C   0  0  0  0  0  0  0  0  0  0  0  0
   -3.7806   -0.9918    0.1441 C   0  0  0  0  0  0  0  0  0  0  0  0
    1.6449    1.4044   -0.7071 C   0  0  0  0  0  0  0  0  0  0  0  0
    3.5189   -0.1444   -0.7683 C   0  0  0  0  0  0  0  0  0  0  0  0
    3.8947    2.2251   -1.0106 C   0  0  0  0  0  0  0  0  0  0  0  0
    2.5231    2.4703   -0.8920 C   0  0  0  0  0  0  0  0  0  0  0  0
    4.3962    0.9226   -0.9482 C   0  0  0  0  0  0  0  0  0  0  0  0
   -4.1385    0.2197   -0.7161 C   0  0  0  0  0  0  0  0  0  0  0  0
    0.0000    0.0000    0.0000 Na  0  0  0  0  0 15  0  0  0  0  0  0
    0.0000    0.0000    0.0000 Na  0  0  0  0  0 15  0  0  0  0  0  0
   -0.0031    0.3985    0.0000 O   0  0  0  0  0  0  0  0  0  0  0  0
   -0.0501    0.3949    0.0000 O   0  0  0  0  0  0  0  0  0  0  0  0
   -0.7635   -0.1951    0.0000 H   0  0  0  0  0  0  0  0  0  0  0  0
    0.7614   -0.2034    0.0000 H   0  0  0  0  0  0  0  0  0  0  0  0
    0.2881   -1.2924   -1.4940 H   0  0  0  0  0  0  0  0  0  0  0  0
   -1.1603   -0.5544   -2.0475 H   0  0  0  0  0  0  0  0  0  0  0  0
   -0.0264   -0.5297    3.2203 H   0  0  0  0  0  0  0  0  0  0  0  0
   -3.9277    0.2340    1.6163 H   0  0  0  0  0  0  0  0  0  0  0  0
   -2.3629    0.1789    3.5595 H   0  0  0  0  0  0  0  0  0  0  0  0
   -4.4635   -0.7027   -0.5686 H   0  0  0  0  0  0  0  0  0  0  0  0
   -3.2256   -1.2383   -1.6612 H   0  0  0  0  0  0  0  0  0  0  0  0
    3.7875   -1.6100    0.5760 H   0  0  0  0  0  0  0  0  0  0  0  0
    0.7189    1.3145   -0.3336 H   0  0  0  0  0  0  0  0  0  0  0  0
    5.4474   -0.2228   -0.6295 H   0  0  0  0  0  0  0  0  0  0  0  0
    2.3594    2.6600   -1.5542 H   0  0  0  0  0  0  0  0  0  0  0  0
   -0.6512   -1.3696   -2.1396 H   0  0  0  0  0  0  0  0  0  0  0  0
   -2.2012   -0.6616   -1.9185 H   0  0  0  0  0  0  0  0  0  0  0  0
    1.2578   -0.6269    2.1160 H   0  0  0  0  0  0  0  0  0  0  0  0
   -3.0048   -0.5434    2.7173 H   0  0  0  0  0  0  0  0  0  0  0  0
   -0.7121   -0.3336    3.6201 H   0  0  0  0  0  0  0  0  0  0  0  0
   -3.9113   -1.9202   -0.4115 H   0  0  0  0  0  0  0  0  0  0  0  0
   -4.4964   -1.0463    0.9772 H   0  0  0  0  0  0  0  0  0  0  0  0
    0.5750    1.6038   -0.6645 H   0  0  0  0  0  0  0  0  0  0  0  0
    3.8812   -1.1669   -0.7415 H   0  0  0  0  0  0  0  0  0  0  0  0
    2.1259    3.4819   -0.9670 H   0  0  0  0  0  0  0  0  0  0  0  0
    5.4696    0.7436   -1.0553 H   0  0  0  0  0  0  0  0  0  0  0  0
    0.7653   -0.1930    0.0000 H   0  0  0  0  0  0  0  0  0  0  0  0
   -0.7623   -0.2054    0.0000 H   0  0  0  0  0  0  0  0  0  0  0  0
   -0.7336   -0.2940    0.0000 H   0  0  0  0  0  0  0  0  0  0  0  0
    0.7837   -0.1009    0.0000 H   0  0  0  0  0  0  0  0  0  0  0  0
  2 18  1  0
  3  9  2  0
  4 21  1  0
  5 21  2  0
  6  8  1  0
  7  8  2  0
  7  9  1  0
  7 12  1  0
  8 10  1  0
  9 11  1  0
 10 13  2  0
 10 15  1  0
 11 16  2  0
 11 17  1  0
 12 14  2  0
 13 14  1  0
 15 21  1  0
 16 19  1  0
 17 20  2  0
 18 19  2  0
 18 20  1  0
 22 38  1  0
 23 29  2  0
 24 41  1  0
 25 41  2  0
 26 28  1  0
 27 28  2  0
 27 29  1  0
 27 32  1  0
 28 30  1  0
 29 31  1  0
 30 33  2  0
 30 35  1  0
 31 36  2  0
 31 37  1  0
 32 34  2  0
 33 34  1  0
 35 41  1  0
 36 39  1  0
 37 40  2  0
 38 39  2  0
 38 40  1  0
  1 46  1  0
  1 47  1  0
  6 48  1  0
  6 49  1  0
 12 50  1  0
 13 51  1  0
 14 52  1  0
 15 53  1  0
 15 54  1  0
 16 55  1  0
 17 56  1  0
 19 57  1  0
 20 58  1  0
 26 59  1  0
 26 60  1  0
 32 61  1  0
 33 62  1  0
 34 63  1  0
 35 64  1  0
 35 65  1  0
 36 66  1  0
 37 67  1  0
 39 68  1  0
 40 69  1  0
 44 70  1  0
 44 71  1  0
 45 72  1  0
 45 73  1  0
M  CHG  4   4  -1  24  -1  42   1  43   1
M  END
$$$$
