
     RDKit          3D

 45 42  0  0  0  0  0  0  0  0999 V2000
    0.0000    0.0000    0.0000 O   0  0  0  0  0  0  0  0  0  0  0  0
   -6.4232    0.0691    1.6902 Br  0  0  0  0  0  0  0  0  0  0  0  0
   -0.6807   -0.2768   -2.1659 O   0  0  0  0  0  0  0  0  0  0  0  0
    5.5631    1.3425   -1.5436 O   0  0  0  0  0  0  0  0  0  0  0  0
    3.4982    1.8649   -0.6363 O   0  0  0  0  0  0  0  0  0  0  0  0
    1.7391   -0.3105   -2.0976 N   0  0  0  0  0  0  0  0  0  0  0  0
    0.3884   -0.3180   -0.0972 C   0  0  0  0  0  0  0  0  0  0  0  0
    1.6266   -0.3487   -0.6809 C   0  0  0  0  0  0  0  0  0  0  0  0
   -0.8188   -0.2664   -0.9095 C   0  0  0  0  0  0  0  0  0  0  0  0
    2.7446   -0.4036    0.1274 C   0  0  0  0  0  0  0  0  0  0  0  0
   -2.1521   -0.2013   -0.3326 C   0  0  0  0  0  0  0  0  0  0  0  0
    0.3093   -0.3479    1.3013 C   0  0  0  0  0  0  0  0  0  0  0  0
    2.6719   -0.4325    1.5085 C   0  0  0  0  0  0  0  0  0  0  0  0
    1.4263   -0.4038    2.0929 C   0  0  0  0  0  0  0  0  0  0  0  0
    4.0958   -0.4268   -0.4849 C   0  0  0  0  0  0  0  0  0  0  0  0
   -2.2926    0.2284    0.9667 C   0  0  0  0  0  0  0  0  0  0  0  0
   -3.2933   -0.5481   -1.0136 C   0  0  0  0  0  0  0  0  0  0  0  0
   -4.6913   -0.0334    0.8832 C   0  0  0  0  0  0  0  0  0  0  0  0
   -3.5388    0.2969    1.5215 C   0  0  0  0  0  0  0  0  0  0  0  0
   -4.5593   -0.4777   -0.4540 C   0  0  0  0  0  0  0  0  0  0  0  0
    4.3868    0.9936   -0.9017 C   0  0  0  0  0  0  0  0  0  0  0  0
   -6.2171   -1.5051    1.9468 Br  0  0  0  0  0  0  0  0  0  0  0  0
   -0.9315    1.4806   -0.8909 O   0  0  0  0  0  0  0  0  0  0  0  0
    5.3222    2.2848   -0.8906 O   0  0  0  0  0  0  0  0  0  0  0  0
    3.6327    1.5001    0.5165 O   0  0  0  0  0  0  0  0  0  0  0  0
    1.3591    1.5167   -1.4862 N   0  0  0  0  0  0  0  0  0  0  0  0
    0.3641   -0.3569   -0.2559 C   0  0  0  0  0  0  0  0  0  0  0  0
    1.4649    0.2363   -0.8477 C   0  0  0  0  0  0  0  0  0  0  0  0
   -0.8913    0.3822   -0.3179 C   0  0  0  0  0  0  0  0  0  0  0  0
    2.7138   -0.3865   -0.8449 C   0  0  0  0  0  0  0  0  0  0  0  0
   -2.1361   -0.1193    0.2774 C   0  0  0  0  0  0  0  0  0  0  0  0
    0.4928   -1.5862    0.3511 C   0  0  0  0  0  0  0  0  0  0  0  0
    2.8277   -1.6052   -0.2392 C   0  0  0  0  0  0  0  0  0  0  0  0
    1.7272   -2.1992    0.3530 C   0  0  0  0  0  0  0  0  0  0  0  0
    3.8460    0.3238   -1.5045 C   0  0  0  0  0  0  0  0  0  0  0  0
   -3.3062    0.3502   -0.2777 C   0  0  0  0  0  0  0  0  0  0  0  0
   -2.1506   -1.0050    1.3340 C   0  0  0  0  0  0  0  0  0  0  0  0
   -4.5192   -0.9545    1.2833 C   0  0  0  0  0  0  0  0  0  0  0  0
   -4.5244   -0.0609    0.2174 C   0  0  0  0  0  0  0  0  0  0  0  0
   -3.3608   -1.4337    1.8505 C   0  0  0  0  0  0  0  0  0  0  0  0
    4.2868    1.4256   -0.5745 C   0  0  0  0  0  0  0  0  0  0  0  0
    0.0000    0.0000    0.0000 Na  0  0  0  0  0 15  0  0  0  0  0  0
    0.0000    0.0000    0.0000 Na  0  0  0  0  0 15  0  0  0  0  0  0
    0.0000    0.0000    0.0000 O   0  0  0  0  0  0  0  0  0  0  0  0
    0.0000    0.0000    0.0000 O   0  0  0  0  0  0  0  0  0  0  0  0
  2 18  1  0
  3  9  2  0
  4 21  1  0
  5 21  2  0
  6  8  1  0
  7  8  2  0
  7  9  1  0
  7 12  1  0
  8 10  1  0
  9 11  1  0
 10 13  2  0
 10 15  1  0
 11 16  2  0
 11 17  1  0
 12 14  2  0
 13 14  1  0
 15 21  1  0
 16 19  1  0
 17 20  2  0
 18 19  2  0
 18 20  1  0
 22 38  1  0
 23 29  2  0
 24 41  1  0
 25 41  2  0
 26 28  1  0
 27 28  2  0
 27 29  1  0
 27 32  1  0
 28 30  1  0
 29 31  1  0
 30 33  2  0
 30 35  1  0
 31 36  2  0
 31 37  1  0
 32 34  2  0
 33 34  1  0
 35 41  1  0
 36 39  1  0
 37 40  2  0
 38 39  2  0
 38 40  1  0
M  CHG  4   4  -1  24  -1  42   1  43   1
M  END
