
     RDKit          3D

 25 24  0  0  0  0  0  0  0  0999 V2000
    0.0000    0.0000    0.0000 Zn  0  0  0  0  0 15  0  0  0  0  0  0
    0.9942   -0.8540   -0.0373 N   0  0  0  0  0  0  0  0  0  0  0  0
    1.3156    0.5114    0.0103 C   0  0  0  0  0  0  0  0  0  0  0  0
    1.9834   -1.8248   -0.0787 O   0  0  0  0  0  0  0  0  0  0  0  0
    2.8575    1.2166    0.0263 S   0  0  0  0  0  0  0  0  0  0  0  0
   -0.2781   -1.3670   -0.0479 C   0  0  0  0  0  0  0  0  0  0  0  0
    0.0941    1.4005    0.0503 C   0  0  0  0  0  0  0  0  0  0  0  0
   -1.3381   -0.5498   -0.0116 C   0  0  0  0  0  0  0  0  0  0  0  0
   -1.1407    0.8769    0.0390 C   0  0  0  0  0  0  0  0  0  0  0  0
    0.9458    0.9078   -0.0252 N   0  0  0  0  0  0  0  0  0  0  0  0
    1.3417   -0.4378    0.0265 C   0  0  0  0  0  0  0  0  0  0  0  0
    1.8801    1.9318   -0.0547 O   0  0  0  0  0  0  0  0  0  0  0  0
    2.9199   -1.0565    0.0614 S   0  0  0  0  0  0  0  0  0  0  0  0
   -0.3528    1.3495   -0.0515 C   0  0  0  0  0  0  0  0  0  0  0  0
    0.1708   -1.3932    0.0516 C   0  0  0  0  0  0  0  0  0  0  0  0
   -1.3663    0.4749   -0.0280 C   0  0  0  0  0  0  0  0  0  0  0  0
   -1.0908   -0.9387    0.0252 C   0  0  0  0  0  0  0  0  0  0  0  0
   -0.3830   -2.4464   -0.0865 H   0  0  0  0  0  0  0  0  0  0  0  0
    0.2549    2.4695    0.0881 H   0  0  0  0  0  0  0  0  0  0  0  0
   -2.3443   -0.9471   -0.0197 H   0  0  0  0  0  0  0  0  0  0  0  0
   -2.0154    1.5141    0.0677 H   0  0  0  0  0  0  0  0  0  0  0  0
   -0.5168    2.4215   -0.0915 H   0  0  0  0  0  0  0  0  0  0  0  0
    0.3901   -2.4517    0.0916 H   0  0  0  0  0  0  0  0  0  0  0  0
   -2.3927    0.8158   -0.0485 H   0  0  0  0  0  0  0  0  0  0  0  0
   -1.9291   -1.6234    0.0432 H   0  0  0  0  0  0  0  0  0  0  0  0
  3  2  1  0
  4  2  1  0
  5  3  2  0
  6  2  1  0
  7  3  1  0
  8  6  2  0
  9  7  2  0
  8  9  1  0
 11 10  1  0
 12 10  1  0
 13 11  2  0
 14 10  1  0
 15 11  1  0
 16 14  2  0
 17 16  1  0
 15 17  2  0
  6 18  1  0
  7 19  1  0
  8 20  1  0
  9 21  1  0
 14 22  1  0
 15 23  1  0
 16 24  1  0
 17 25  1  0
M  CHG  3   1   2   4  -1  12  -1
M  END
$$$$
