
     RDKit          3D

 25 24  0  0  0  0  0  0  0  0999 V2000
    0.0000    0.0000    0.0000 Zn  0  0  0  0  0 15  0  0  0  0  0  0
    1.2910    0.2237    0.0496 N   0  0  0  0  0  0  0  0  0  0  0  0
    0.4412    1.3406    0.0257 C   0  0  0  0  0  0  0  0  0  0  0  0
    2.6689    0.3694    0.1020 O   0  0  0  0  0  0  0  0  0  0  0  0
    0.8766    2.9790    0.0532 S   0  0  0  0  0  0  0  0  0  0  0  0
    0.8785   -1.0844    0.0252 C   0  0  0  0  0  0  0  0  0  0  0  0
   -1.0213    0.9637   -0.0314 C   0  0  0  0  0  0  0  0  0  0  0  0
   -0.4259   -1.3824   -0.0254 C   0  0  0  0  0  0  0  0  0  0  0  0
   -1.4017   -0.3223   -0.0544 C   0  0  0  0  0  0  0  0  0  0  0  0
    0.4453    1.2298    0.0915 N   0  0  0  0  0  0  0  0  0  0  0  0
    1.3966    0.1986    0.0507 C   0  0  0  0  0  0  0  0  0  0  0  0
    0.8289    2.5588    0.1877 O   0  0  0  0  0  0  0  0  0  0  0  0
    3.0854    0.3393    0.1056 S   0  0  0  0  0  0  0  0  0  0  0  0
   -0.9143    1.0537    0.0432 C   0  0  0  0  0  0  0  0  0  0  0  0
    0.7706   -1.1730   -0.0548 C   0  0  0  0  0  0  0  0  0  0  0  0
   -1.4351   -0.1762   -0.0503 C   0  0  0  0  0  0  0  0  0  0  0  0
   -0.5616   -1.3214   -0.1006 C   0  0  0  0  0  0  0  0  0  0  0  0
    1.6451   -1.8522    0.0485 H   0  0  0  0  0  0  0  0  0  0  0  0
   -1.7443    1.7680   -0.0528 H   0  0  0  0  0  0  0  0  0  0  0  0
   -0.7586   -2.4115   -0.0449 H   0  0  0  0  0  0  0  0  0  0  0  0
   -2.4494   -0.5918   -0.0953 H   0  0  0  0  0  0  0  0  0  0  0  0
   -1.5365    1.9420    0.0837 H   0  0  0  0  0  0  0  0  0  0  0  0
    1.4364   -2.0248   -0.0917 H   0  0  0  0  0  0  0  0  0  0  0  0
   -2.5062   -0.3228   -0.0889 H   0  0  0  0  0  0  0  0  0  0  0  0
   -1.0095   -2.3041   -0.1761 H   0  0  0  0  0  0  0  0  0  0  0  0
  3  2  1  0
  4  2  1  0
  5  3  2  0
  6  2  1  0
  7  3  1  0
  8  6  2  0
  9  7  2  0
  8  9  1  0
 11 10  1  0
 12 10  1  0
 13 11  2  0
 14 10  1  0
 15 11  1  0
 16 14  2  0
 17 16  1  0
 15 17  2  0
  6 18  1  0
  7 19  1  0
  8 20  1  0
  9 21  1  0
 14 22  1  0
 15 23  1  0
 16 24  1  0
 17 25  1  0
M  CHG  3   1   2   4  -1  12  -1
M  END
$$$$
