
     RDKit          3D

 25 24  0  0  0  0  0  0  0  0999 V2000
    0.0000    0.0000    0.0000 Zn  0  0  0  0  0 15  0  0  0  0  0  0
    1.3008   -0.1625   -0.0269 N   0  0  0  0  0  0  0  0  0  0  0  0
    0.8117    1.1520   -0.0816 C   0  0  0  0  0  0  0  0  0  0  0  0
    2.6621   -0.4250   -0.0503 O   0  0  0  0  0  0  0  0  0  0  0  0
    1.7044    2.5901   -0.1801 S   0  0  0  0  0  0  0  0  0  0  0  0
    0.5260   -1.2918    0.0525 C   0  0  0  0  0  0  0  0  0  0  0  0
   -0.6977    1.2182   -0.0440 C   0  0  0  0  0  0  0  0  0  0  0  0
   -0.8092   -1.1963    0.0838 C   0  0  0  0  0  0  0  0  0  0  0  0
   -1.4354    0.1007    0.0338 C   0  0  0  0  0  0  0  0  0  0  0  0
    1.0356    0.8041   -0.0129 N   0  0  0  0  0  0  0  0  0  0  0  0
    1.2884   -0.5759    0.0303 C   0  0  0  0  0  0  0  0  0  0  0  0
    2.0721    1.7249   -0.0293 O   0  0  0  0  0  0  0  0  0  0  0  0
    2.7930   -1.3566    0.0687 S   0  0  0  0  0  0  0  0  0  0  0  0
   -0.2094    1.3793   -0.0427 C   0  0  0  0  0  0  0  0  0  0  0  0
    0.0239   -1.4037    0.0415 C   0  0  0  0  0  0  0  0  0  0  0  0
   -1.3089    0.6154   -0.0316 C   0  0  0  0  0  0  0  0  0  0  0  0
   -1.1831   -0.8196    0.0119 C   0  0  0  0  0  0  0  0  0  0  0  0
    1.0368   -2.2487    0.0881 H   0  0  0  0  0  0  0  0  0  0  0  0
   -1.1563    2.1972   -0.0822 H   0  0  0  0  0  0  0  0  0  0  0  0
   -1.4265   -2.0824    0.1464 H   0  0  0  0  0  0  0  0  0  0  0  0
   -2.5166    0.1486    0.0606 H   0  0  0  0  0  0  0  0  0  0  0  0
   -0.2602    2.4629   -0.0751 H   0  0  0  0  0  0  0  0  0  0  0  0
    0.1311   -2.4796    0.0742 H   0  0  0  0  0  0  0  0  0  0  0  0
   -2.2939    1.0619   -0.0549 H   0  0  0  0  0  0  0  0  0  0  0  0
   -2.0885   -1.4130    0.0199 H   0  0  0  0  0  0  0  0  0  0  0  0
  3  2  1  0
  4  2  1  0
  5  3  2  0
  6  2  1  0
  7  3  1  0
  8  6  2  0
  9  7  2  0
  8  9  1  0
 11 10  1  0
 12 10  1  0
 13 11  2  0
 14 10  1  0
 15 11  1  0
 16 14  2  0
 17 16  1  0
 15 17  2  0
  6 18  1  0
  7 19  1  0
  8 20  1  0
  9 21  1  0
 14 22  1  0
 15 23  1  0
 16 24  1  0
 17 25  1  0
M  CHG  3   1   2   4  -1  12  -1
M  END
$$$$
