
     RDKit          3D

 25 24  0  0  0  0  0  0  0  0999 V2000
    0.0000    0.0000    0.0000 Zn  0  0  0  0  0 15  0  0  0  0  0  0
    1.1381    0.6511   -0.0005 N   0  0  0  0  0  0  0  0  0  0  0  0
    1.1949   -0.7512   -0.0206 C   0  0  0  0  0  0  0  0  0  0  0  0
    2.2934    1.4178    0.0005 O   0  0  0  0  0  0  0  0  0  0  0  0
    2.5753   -1.7354   -0.0461 S   0  0  0  0  0  0  0  0  0  0  0  0
   -0.0140    1.3956    0.0197 C   0  0  0  0  0  0  0  0  0  0  0  0
   -0.1730   -1.3937   -0.0181 C   0  0  0  0  0  0  0  0  0  0  0  0
   -1.2097    0.7931    0.0214 C   0  0  0  0  0  0  0  0  0  0  0  0
   -1.2863   -0.6459    0.0018 C   0  0  0  0  0  0  0  0  0  0  0  0
    0.6636   -1.1301    0.0399 N   0  0  0  0  0  0  0  0  0  0  0  0
    1.4096    0.0588    0.0455 C   0  0  0  0  0  0  0  0  0  0  0  0
    1.2848   -2.3691    0.0801 O   0  0  0  0  0  0  0  0  0  0  0  0
    3.0959    0.2279    0.0984 S   0  0  0  0  0  0  0  0  0  0  0  0
   -0.7055   -1.2044   -0.0040 C   0  0  0  0  0  0  0  0  0  0  0  0
    0.5423    1.2956   -0.0028 C   0  0  0  0  0  0  0  0  0  0  0  0
   -1.4433   -0.0879   -0.0462 C   0  0  0  0  0  0  0  0  0  0  0  0
   -0.7948    1.1991   -0.0453 C   0  0  0  0  0  0  0  0  0  0  0  0
    0.0875    2.4760    0.0340 H   0  0  0  0  0  0  0  0  0  0  0  0
   -0.2177   -2.4744   -0.0328 H   0  0  0  0  0  0  0  0  0  0  0  0
   -2.1224    1.3736    0.0372 H   0  0  0  0  0  0  0  0  0  0  0  0
   -2.2659   -1.1066    0.0037 H   0  0  0  0  0  0  0  0  0  0  0  0
   -1.1541   -2.1925   -0.0031 H   0  0  0  0  0  0  0  0  0  0  0  0
    1.0404    2.2558   -0.0017 H   0  0  0  0  0  0  0  0  0  0  0  0
   -2.5233   -0.1387   -0.0810 H   0  0  0  0  0  0  0  0  0  0  0  0
   -1.4156    2.0853   -0.0799 H   0  0  0  0  0  0  0  0  0  0  0  0
  3  2  1  0
  4  2  1  0
  5  3  2  0
  6  2  1  0
  7  3  1  0
  8  6  2  0
  9  7  2  0
  8  9  1  0
 11 10  1  0
 12 10  1  0
 13 11  2  0
 14 10  1  0
 15 11  1  0
 16 14  2  0
 17 16  1  0
 15 17  2  0
  6 18  1  0
  7 19  1  0
  8 20  1  0
  9 21  1  0
 14 22  1  0
 15 23  1  0
 16 24  1  0
 17 25  1  0
M  CHG  3   1   2   4  -1  12  -1
M  END
$$$$
