
     RDKit          3D

 49 52  0  0  0  0  0  0  0  0999 V2000
    0.9899    0.8265    0.4017 C   0  0  0  0  0  0  0  0  0  0  0  0
    0.8570   -0.1825   -0.6821 C   0  0  0  0  0  0  0  0  0  0  0  0
   -0.5258   -0.5729   -1.1308 C   0  0  0  0  0  0  0  0  0  0  0  0
   -1.5782    0.0090   -0.5078 C   0  0  0  0  0  0  0  0  0  0  0  0
   -1.4278    0.9457    0.5244 N   0  0  0  0  0  0  0  0  0  0  0  0
   -0.1487    1.3186    0.9135 C   0  0  0  0  0  0  0  0  0  0  0  0
   -2.9674   -0.4127   -0.9478 C   0  0  0  0  0  0  0  0  0  0  0  0
   -4.0426    0.0304   -0.1964 N   0  0  0  0  0  0  0  0  0  0  0  0
   -3.8658    0.7865    1.0238 C   0  0  2  0  0  0  0  0  0  0  0  0
   -2.6031    1.6613    1.0487 C   0  0  0  0  0  0  0  0  0  0  0  0
   -5.3348   -0.6383   -0.3469 C   0  0  1  0  0  0  0  0  0  0  0  0
   -6.0137   -0.7895    1.0202 C   0  0  0  0  0  0  0  0  0  0  0  0
   -4.9505   -1.0859    2.0750 C   0  0  0  0  0  0  0  0  0  0  0  0
   -3.8944   -0.1182    2.1275 O   0  0  0  0  0  0  0  0  0  0  0  0
    2.2855    1.3299    0.9379 C   0  0  0  0  0  0  0  0  0  0  0  0
    2.3295    2.2197    1.7838 O   0  0  0  0  0  0  0  0  0  0  0  0
    3.4089    0.7400    0.4222 N   0  0  0  0  0  0  0  0  0  0  0  0
    4.7319    1.2310    0.7318 C   0  0  0  0  0  0  0  0  0  0  0  0
    5.8020    0.2416    0.3610 C   0  0  0  0  0  0  0  0  0  0  0  0
    5.7286   -1.0987    0.7760 C   0  0  0  0  0  0  0  0  0  0  0  0
    6.7440   -1.9972    0.4419 C   0  0  0  0  0  0  0  0  0  0  0  0
    7.8374   -1.5564   -0.2962 C   0  0  0  0  0  0  0  0  0  0  0  0
    7.9388   -0.2349   -0.7049 C   0  0  0  0  0  0  0  0  0  0  0  0
    6.9231    0.6531   -0.3692 C   0  0  0  0  0  0  0  0  0  0  0  0
    8.8105   -2.4209   -0.6116 F   0  0  0  0  0  0  0  0  0  0  0  0
    7.0350    1.9311   -0.7587 F   0  0  0  0  0  0  0  0  0  0  0  0
    1.8585   -0.6756   -1.2026 O   0  0  0  0  0  0  0  0  0  0  0  0
   -0.6113   -1.5054   -2.1539 O   0  0  0  0  0  0  0  0  0  0  0  0
   -3.1092   -1.1468   -1.9288 O   0  0  0  0  0  0  0  0  0  0  0  0
   -6.2256    0.1048   -1.3378 C   0  0  0  0  0  0  0  0  0  0  0  0
   -0.1255    2.0699    1.7018 H   0  0  0  0  0  0  0  0  0  0  0  0
   -4.7152    1.4737    1.1321 H   0  0  0  0  0  0  0  0  0  0  0  0
   -2.4182    2.0020    2.0747 H   0  0  0  0  0  0  0  0  0  0  0  0
   -2.7626    2.5456    0.4190 H   0  0  0  0  0  0  0  0  0  0  0  0
   -5.1566   -1.6462   -0.7435 H   0  0  0  0  0  0  0  0  0  0  0  0
   -6.5374    0.1365    1.2897 H   0  0  0  0  0  0  0  0  0  0  0  0
   -6.7664   -1.5850    0.9910 H   0  0  0  0  0  0  0  0  0  0  0  0
   -5.4060   -1.1331    3.0694 H   0  0  0  0  0  0  0  0  0  0  0  0
   -4.4901   -2.0622    1.8848 H   0  0  0  0  0  0  0  0  0  0  0  0
    3.2978    0.1039   -0.3697 H   0  0  0  0  0  0  0  0  0  0  0  0
    4.7976    1.4595    1.8019 H   0  0  0  0  0  0  0  0  0  0  0  0
    4.8525    2.1734    0.1859 H   0  0  0  0  0  0  0  0  0  0  0  0
    4.8774   -1.4471    1.3585 H   0  0  0  0  0  0  0  0  0  0  0  0
    6.6891   -3.0360    0.7532 H   0  0  0  0  0  0  0  0  0  0  0  0
    8.7969    0.1006   -1.2747 H   0  0  0  0  0  0  0  0  0  0  0  0
   -1.5595   -1.6381   -2.3740 H   0  0  0  0  0  0  0  0  0  0  0  0
   -7.1871   -0.4052   -1.4557 H   0  0  0  0  0  0  0  0  0  0  0  0
   -5.7490    0.1636   -2.3222 H   0  0  0  0  0  0  0  0  0  0  0  0
   -6.4200    1.1306   -1.0058 H   0  0  0  0  0  0  0  0  0  0  0  0
  1  2  1  0
  2  3  1  0
  3  4  2  0
  5  6  1  0
  6  1  2  0
  4  7  1  0
  5  4  1  0
 10  5  1  0
  7  8  1  0
  9 10  1  0
  8 11  1  0
  9  8  1  0
 14  9  1  0
 11 12  1  0
 12 13  1  0
 13 14  1  0
  1 15  1  0
 15 16  2  0
 15 17  1  0
 17 18  1  0
 18 19  1  0
 19 20  2  0
 19 24  1  0
 20 21  1  0
 21 22  2  0
 22 23  1  0
 23 24  2  0
 22 25  1  0
 24 26  1  0
  2 27  2  0
  3 28  1  0
  7 29  2  0
 11 30  1  0
  6 31  1  0
  9 32  1  1
 10 33  1  0
 10 34  1  0
 11 35  1  6
 12 36  1  0
 12 37  1  0
 13 38  1  0
 13 39  1  0
 17 40  1  0
 18 41  1  0
 18 42  1  0
 20 43  1  0
 21 44  1  0
 23 45  1  0
 28 46  1  0
 30 47  1  0
 30 48  1  0
 30 49  1  0
M  END
$$$$
