
     RDKit          3D

 49 52  0  0  0  0  0  0  0  0999 V2000
    0.9353   -0.2329   -1.1545 C   0  0  0  0  0  0  0  0  0  0  0  0
    0.6447   -1.3652   -0.2295 C   0  0  0  0  0  0  0  0  0  0  0  0
   -0.7943   -1.6456    0.1168 C   0  0  0  0  0  0  0  0  0  0  0  0
   -1.7230   -0.7612   -0.3141 C   0  0  0  0  0  0  0  0  0  0  0  0
   -1.4039    0.3680   -1.0909 N   0  0  0  0  0  0  0  0  0  0  0  0
   -0.0963    0.5401   -1.5145 C   0  0  0  0  0  0  0  0  0  0  0  0
   -3.1639   -1.0056    0.0968 C   0  0  0  0  0  0  0  0  0  0  0  0
   -4.0581    0.0503   -0.0626 N   0  0  0  0  0  0  0  0  0  0  0  0
   -3.5945    1.3522   -0.4738 C   0  0  2  0  0  0  0  0  0  0  0  0
   -2.4654    1.2910   -1.5154 C   0  0  0  0  0  0  0  0  0  0  0  0
   -5.3131    0.0486    0.6910 C   0  0  1  0  0  0  0  0  0  0  0  0
   -5.4168    1.3460    1.5103 C   0  0  0  0  0  0  0  0  0  0  0  0
   -4.0189    1.8547    1.8440 C   0  0  0  0  0  0  0  0  0  0  0  0
   -3.2103    2.0877    0.6822 O   0  0  0  0  0  0  0  0  0  0  0  0
    2.2867    0.1092   -1.6711 C   0  0  0  0  0  0  0  0  0  0  0  0
    2.4232    0.8627   -2.6497 O   0  0  0  0  0  0  0  0  0  0  0  0
    3.3464   -0.4416   -0.9659 N   0  0  0  0  0  0  0  0  0  0  0  0
    4.7141   -0.2247   -1.3682 C   0  0  0  0  0  0  0  0  0  0  0  0
    5.6696   -0.3733   -0.2171 C   0  0  0  0  0  0  0  0  0  0  0  0
    5.7944   -1.5870    0.4800 C   0  0  0  0  0  0  0  0  0  0  0  0
    6.6914   -1.6967    1.5428 C   0  0  0  0  0  0  0  0  0  0  0  0
    7.4703   -0.5984    1.9094 C   0  0  0  0  0  0  0  0  0  0  0  0
    7.3667    0.6044    1.2340 C   0  0  0  0  0  0  0  0  0  0  0  0
    6.4723    0.7056    0.1755 C   0  0  0  0  0  0  0  0  0  0  0  0
    8.3356   -0.7210    2.9298 F   0  0  0  0  0  0  0  0  0  0  0  0
    6.3894    1.8744   -0.4798 F   0  0  0  0  0  0  0  0  0  0  0  0
    1.5602   -2.0510    0.2336 O   0  0  0  0  0  0  0  0  0  0  0  0
   -1.0569   -2.7845    0.8743 O   0  0  0  0  0  0  0  0  0  0  0  0
   -3.4987   -2.0970    0.5709 O   0  0  0  0  0  0  0  0  0  0  0  0
   -6.5119   -0.1298   -0.2406 C   0  0  0  0  0  0  0  0  0  0  0  0
    0.0467    1.3940   -2.1814 H   0  0  0  0  0  0  0  0  0  0  0  0
   -4.4287    1.8882   -0.9377 H   0  0  0  0  0  0  0  0  0  0  0  0
   -2.0579    2.2989   -1.6810 H   0  0  0  0  0  0  0  0  0  0  0  0
   -2.8725    0.9222   -2.4670 H   0  0  0  0  0  0  0  0  0  0  0  0
   -5.3075   -0.7979    1.3895 H   0  0  0  0  0  0  0  0  0  0  0  0
   -5.9387    2.1240    0.9354 H   0  0  0  0  0  0  0  0  0  0  0  0
   -5.9996    1.1778    2.4208 H   0  0  0  0  0  0  0  0  0  0  0  0
   -3.4922    1.1367    2.4837 H   0  0  0  0  0  0  0  0  0  0  0  0
   -4.0777    2.7956    2.4010 H   0  0  0  0  0  0  0  0  0  0  0  0
    3.1367   -1.1062   -0.2283 H   0  0  0  0  0  0  0  0  0  0  0  0
    4.7980    0.7670   -1.8204 H   0  0  0  0  0  0  0  0  0  0  0  0
    4.9527   -0.9513   -2.1462 H   0  0  0  0  0  0  0  0  0  0  0  0
    5.1957   -2.4483    0.2007 H   0  0  0  0  0  0  0  0  0  0  0  0
    6.7878   -2.6263    2.0881 H   0  0  0  0  0  0  0  0  0  0  0  0
    7.9697    1.4561    1.5220 H   0  0  0  0  0  0  0  0  0  0  0  0
   -2.0308   -2.8861    0.9420 H   0  0  0  0  0  0  0  0  0  0  0  0
   -6.4126   -1.0405   -0.8424 H   0  0  0  0  0  0  0  0  0  0  0  0
   -6.5989    0.7092   -0.9408 H   0  0  0  0  0  0  0  0  0  0  0  0
   -7.4444   -0.1924    0.3320 H   0  0  0  0  0  0  0  0  0  0  0  0
  1  2  1  0
  2  3  1  0
  3  4  2  0
  5  6  1  0
  6  1  2  0
  4  7  1  0
  5  4  1  0
 10  5  1  0
  7  8  1  0
  9 10  1  0
  8 11  1  0
  9  8  1  0
 14  9  1  0
 11 12  1  0
 12 13  1  0
 13 14  1  0
  1 15  1  0
 15 16  2  0
 15 17  1  0
 17 18  1  0
 18 19  1  0
 19 20  2  0
 19 24  1  0
 20 21  1  0
 21 22  2  0
 22 23  1  0
 23 24  2  0
 22 25  1  0
 24 26  1  0
  2 27  2  0
  3 28  1  0
  7 29  2  0
 11 30  1  0
  6 31  1  0
  9 32  1  6
 10 33  1  0
 10 34  1  0
 11 35  1  1
 12 36  1  0
 12 37  1  0
 13 38  1  0
 13 39  1  0
 17 40  1  0
 18 41  1  0
 18 42  1  0
 20 43  1  0
 21 44  1  0
 23 45  1  0
 28 46  1  0
 30 47  1  0
 30 48  1  0
 30 49  1  0
M  END
$$$$
