
     RDKit          3D

 49 52  0  0  0  0  0  0  0  0999 V2000
    1.2131   -0.8111    0.8300 C   0  0  0  0  0  0  0  0  0  0  0  0
    0.9221   -1.7077   -0.3222 C   0  0  0  0  0  0  0  0  0  0  0  0
   -0.5136   -1.8965   -0.7366 C   0  0  0  0  0  0  0  0  0  0  0  0
   -1.4503   -1.1492   -0.1072 C   0  0  0  0  0  0  0  0  0  0  0  0
   -1.1398   -0.2439    0.9177 N   0  0  0  0  0  0  0  0  0  0  0  0
    0.1716   -0.1496    1.3607 C   0  0  0  0  0  0  0  0  0  0  0  0
   -2.8862   -1.2782   -0.5814 C   0  0  0  0  0  0  0  0  0  0  0  0
   -3.7818   -0.2871   -0.1945 N   0  0  0  0  0  0  0  0  0  0  0  0
   -3.3335    0.8526    0.5977 C   0  0  2  0  0  0  0  0  0  0  0  0
   -2.2204    0.4826    1.5927 C   0  0  0  0  0  0  0  0  0  0  0  0
   -5.0526   -0.1803   -0.9212 C   0  0  1  0  0  0  0  0  0  0  0  0
   -6.0318    0.7644   -0.2238 C   0  0  0  0  0  0  0  0  0  0  0  0
   -5.6694    0.8447    1.2393 C   0  0  0  0  0  0  0  0  0  0  0  0
   -4.3889    1.4588    1.3565 O   0  0  0  0  0  0  0  0  0  0  0  0
    2.5724   -0.5660    1.3882 C   0  0  0  0  0  0  0  0  0  0  0  0
    2.7624    0.2730    2.2649 O   0  0  0  0  0  0  0  0  0  0  0  0
    3.5783   -1.3195    0.8352 N   0  0  0  0  0  0  0  0  0  0  0  0
    4.9746   -1.0174    1.0637 C   0  0  0  0  0  0  0  0  0  0  0  0
    5.4860    0.0544    0.1320 C   0  0  0  0  0  0  0  0  0  0  0  0
    5.1241    0.0949   -1.2261 C   0  0  0  0  0  0  0  0  0  0  0  0
    5.6183    1.1012   -2.0572 C   0  0  0  0  0  0  0  0  0  0  0  0
    6.4871    2.0574   -1.5435 C   0  0  0  0  0  0  0  0  0  0  0  0
    6.8817    2.0220   -0.2142 C   0  0  0  0  0  0  0  0  0  0  0  0
    6.3847    1.0179    0.6082 C   0  0  0  0  0  0  0  0  0  0  0  0
    6.9552    3.0197   -2.3450 F   0  0  0  0  0  0  0  0  0  0  0  0
    6.7905    0.9798    1.8856 F   0  0  0  0  0  0  0  0  0  0  0  0
    1.8400   -2.2629   -0.9296 O   0  0  0  0  0  0  0  0  0  0  0  0
   -0.7605   -2.8018   -1.7547 O   0  0  0  0  0  0  0  0  0  0  0  0
   -3.2107   -2.2207   -1.3063 O   0  0  0  0  0  0  0  0  0  0  0  0
   -4.8492    0.2556   -2.3772 C   0  0  0  0  0  0  0  0  0  0  0  0
    0.3132    0.5332    2.1959 H   0  0  0  0  0  0  0  0  0  0  0  0
   -2.9565    1.6051   -0.1055 H   0  0  0  0  0  0  0  0  0  0  0  0
   -2.6246   -0.1349    2.4032 H   0  0  0  0  0  0  0  0  0  0  0  0
   -1.8466    1.4017    2.0597 H   0  0  0  0  0  0  0  0  0  0  0  0
   -5.4919   -1.1883   -0.9304 H   0  0  0  0  0  0  0  0  0  0  0  0
   -5.9605    1.7707   -0.6595 H   0  0  0  0  0  0  0  0  0  0  0  0
   -7.0633    0.4185   -0.3640 H   0  0  0  0  0  0  0  0  0  0  0  0
   -5.6589   -0.1406    1.7275 H   0  0  0  0  0  0  0  0  0  0  0  0
   -6.3967    1.4694    1.7751 H   0  0  0  0  0  0  0  0  0  0  0  0
    3.3441   -1.9216    0.0455 H   0  0  0  0  0  0  0  0  0  0  0  0
    5.0944   -0.7159    2.1091 H   0  0  0  0  0  0  0  0  0  0  0  0
    5.5434   -1.9394    0.9018 H   0  0  0  0  0  0  0  0  0  0  0  0
    4.4483   -0.6497   -1.6415 H   0  0  0  0  0  0  0  0  0  0  0  0
    5.3363    1.1419   -3.1069 H   0  0  0  0  0  0  0  0  0  0  0  0
    7.5680    2.7630    0.1771 H   0  0  0  0  0  0  0  0  0  0  0  0
   -1.7326   -2.9065   -1.8531 H   0  0  0  0  0  0  0  0  0  0  0  0
   -4.3416    1.2241   -2.4317 H   0  0  0  0  0  0  0  0  0  0  0  0
   -5.8068    0.3458   -2.8965 H   0  0  0  0  0  0  0  0  0  0  0  0
   -4.2412   -0.4638   -2.9317 H   0  0  0  0  0  0  0  0  0  0  0  0
  1  2  1  0
  2  3  1  0
  3  4  2  0
  5  6  1  0
  6  1  2  0
  4  7  1  0
  5  4  1  0
 10  5  1  0
  7  8  1  0
  9 10  1  0
  8 11  1  0
  9  8  1  0
 14  9  1  0
 11 12  1  0
 12 13  1  0
 13 14  1  0
  1 15  1  0
 15 16  2  0
 15 17  1  0
 17 18  1  0
 18 19  1  0
 19 20  2  0
 19 24  1  0
 20 21  1  0
 21 22  2  0
 22 23  1  0
 23 24  2  0
 22 25  1  0
 24 26  1  0
  2 27  2  0
  3 28  1  0
  7 29  2  0
 11 30  1  0
  6 31  1  0
  9 32  1  6
 10 33  1  0
 10 34  1  0
 11 35  1  6
 12 36  1  0
 12 37  1  0
 13 38  1  0
 13 39  1  0
 17 40  1  0
 18 41  1  0
 18 42  1  0
 20 43  1  0
 21 44  1  0
 23 45  1  0
 28 46  1  0
 30 47  1  0
 30 48  1  0
 30 49  1  0
M  END
$$$$
