
     RDKit          3D

 49 52  0  0  0  0  0  0  0  0999 V2000
    1.0068    0.7485    0.3561 C   0  0  0  0  0  0  0  0  0  0  0  0
    0.9317   -0.7366    0.3853 C   0  0  0  0  0  0  0  0  0  0  0  0
   -0.4272   -1.3835    0.4341 C   0  0  0  0  0  0  0  0  0  0  0  0
   -1.5113   -0.5724    0.4220 C   0  0  0  0  0  0  0  0  0  0  0  0
   -1.4143    0.8250    0.3633 N   0  0  0  0  0  0  0  0  0  0  0  0
   -0.1585    1.4144    0.3577 C   0  0  0  0  0  0  0  0  0  0  0  0
   -2.8809   -1.2305    0.4543 C   0  0  0  0  0  0  0  0  0  0  0  0
   -3.9973   -0.4158    0.2795 N   0  0  0  0  0  0  0  0  0  0  0  0
   -3.8288    0.9655   -0.1594 C   0  0  2  0  0  0  0  0  0  0  0  0
   -2.6255    1.6407    0.5179 C   0  0  0  0  0  0  0  0  0  0  0  0
   -5.2795   -1.0721    0.0040 C   0  0  1  0  0  0  0  0  0  0  0  0
   -6.4489   -0.1337    0.2888 C   0  0  0  0  0  0  0  0  0  0  0  0
   -6.1933    1.2194   -0.3404 C   0  0  0  0  0  0  0  0  0  0  0  0
   -4.9793    1.7444    0.1771 O   0  0  0  0  0  0  0  0  0  0  0  0
    2.2729    1.5336    0.3370 C   0  0  0  0  0  0  0  0  0  0  0  0
    2.2677    2.7619    0.3620 O   0  0  0  0  0  0  0  0  0  0  0  0
    3.4264    0.7969    0.2922 N   0  0  0  0  0  0  0  0  0  0  0  0
    4.7254    1.4157    0.4254 C   0  0  0  0  0  0  0  0  0  0  0  0
    5.8360    0.4943    0.0021 C   0  0  0  0  0  0  0  0  0  0  0  0
    5.7973   -0.1721   -1.2341 C   0  0  0  0  0  0  0  0  0  0  0  0
    6.8499   -1.0047   -1.6199 C   0  0  0  0  0  0  0  0  0  0  0  0
    7.9455   -1.1637   -0.7779 C   0  0  0  0  0  0  0  0  0  0  0  0
    8.0127   -0.5051    0.4409 C   0  0  0  0  0  0  0  0  0  0  0  0
    6.9601    0.3210    0.8181 C   0  0  0  0  0  0  0  0  0  0  0  0
    8.9542   -1.9607   -1.1536 F   0  0  0  0  0  0  0  0  0  0  0  0
    7.0387    0.9627    1.9927 F   0  0  0  0  0  0  0  0  0  0  0  0
    1.9597   -1.4145    0.3780 O   0  0  0  0  0  0  0  0  0  0  0  0
   -0.4600   -2.7687    0.4873 O   0  0  0  0  0  0  0  0  0  0  0  0
   -2.9709   -2.4503    0.6128 O   0  0  0  0  0  0  0  0  0  0  0  0
   -5.3336   -1.6185   -1.4298 C   0  0  0  0  0  0  0  0  0  0  0  0
   -0.1781    2.5036    0.3534 H   0  0  0  0  0  0  0  0  0  0  0  0
   -3.6878    0.9639   -1.2481 H   0  0  0  0  0  0  0  0  0  0  0  0
   -2.4904    2.6420    0.0889 H   0  0  0  0  0  0  0  0  0  0  0  0
   -2.8262    1.7867    1.5878 H   0  0  0  0  0  0  0  0  0  0  0  0
   -5.3703   -1.9336    0.6783 H   0  0  0  0  0  0  0  0  0  0  0  0
   -6.5279   -0.0031    1.3760 H   0  0  0  0  0  0  0  0  0  0  0  0
   -7.3966   -0.5563   -0.0612 H   0  0  0  0  0  0  0  0  0  0  0  0
   -6.9974    1.9120   -0.0718 H   0  0  0  0  0  0  0  0  0  0  0  0
   -6.1485    1.1771   -1.4339 H   0  0  0  0  0  0  0  0  0  0  0  0
    3.3559   -0.2168    0.3977 H   0  0  0  0  0  0  0  0  0  0  0  0
    4.8274    1.7079    1.4765 H   0  0  0  0  0  0  0  0  0  0  0  0
    4.7587    2.3317   -0.1758 H   0  0  0  0  0  0  0  0  0  0  0  0
    4.9445   -0.0466   -1.8990 H   0  0  0  0  0  0  0  0  0  0  0  0
    6.8223   -1.5284   -2.5707 H   0  0  0  0  0  0  0  0  0  0  0  0
    8.8727   -0.6307    1.0876 H   0  0  0  0  0  0  0  0  0  0  0  0
   -1.3962   -3.0550    0.5710 H   0  0  0  0  0  0  0  0  0  0  0  0
   -5.1948   -0.8289   -2.1750 H   0  0  0  0  0  0  0  0  0  0  0  0
   -4.5473   -2.3618   -1.5984 H   0  0  0  0  0  0  0  0  0  0  0  0
   -6.2956   -2.1047   -1.6233 H   0  0  0  0  0  0  0  0  0  0  0  0
  1  2  1  0
  2  3  1  0
  3  4  2  0
  5  6  1  0
  6  1  2  0
  4  7  1  0
  5  4  1  0
 10  5  1  0
  7  8  1  0
  9 10  1  0
  8 11  1  0
  9  8  1  0
 14  9  1  0
 11 12  1  0
 12 13  1  0
 13 14  1  0
  1 15  1  0
 15 16  2  0
 15 17  1  0
 17 18  1  0
 18 19  1  0
 19 20  2  0
 19 24  1  0
 20 21  1  0
 21 22  2  0
 22 23  1  0
 23 24  2  0
 22 25  1  0
 24 26  1  0
  2 27  2  0
  3 28  1  0
  7 29  2  0
 11 30  1  0
  6 31  1  0
  9 32  1  6
 10 33  1  0
 10 34  1  0
 11 35  1  1
 12 36  1  0
 12 37  1  0
 13 38  1  0
 13 39  1  0
 17 40  1  0
 18 41  1  0
 18 42  1  0
 20 43  1  0
 21 44  1  0
 23 45  1  0
 28 46  1  0
 30 47  1  0
 30 48  1  0
 30 49  1  0
M  END
$$$$
