
     RDKit          3D

 49 52  0  0  0  0  0  0  0  0999 V2000
    1.0309    0.1885   -0.8532 C   0  0  0  0  0  0  0  0  0  0  0  0
    0.7583   -1.2644   -0.9473 C   0  0  0  0  0  0  0  0  0  0  0  0
   -0.5914   -1.7807   -0.5538 C   0  0  0  0  0  0  0  0  0  0  0  0
   -1.5199   -0.8929   -0.1355 C   0  0  0  0  0  0  0  0  0  0  0  0
   -1.2514    0.4945   -0.0957 N   0  0  0  0  0  0  0  0  0  0  0  0
    0.0145    0.9562   -0.4314 C   0  0  0  0  0  0  0  0  0  0  0  0
   -2.8913   -1.4095    0.3106 C   0  0  0  0  0  0  0  0  0  0  0  0
   -3.8796   -0.4427    0.5018 N   0  0  0  0  0  0  0  0  0  0  0  0
   -3.6748    0.9017   -0.0044 C   0  0  2  0  0  0  0  0  0  0  0  0
   -2.2855    1.4285    0.3812 C   0  0  0  0  0  0  0  0  0  0  0  0
   -5.2466   -0.8549    0.8130 C   0  0  1  0  0  0  0  0  0  0  0  0
   -5.9336    0.1720    1.7189 C   0  0  0  0  0  0  0  0  0  0  0  0
   -5.1839    1.4927    1.7403 C   0  0  0  0  0  0  0  0  0  0  0  0
   -4.7039    1.7921    0.4363 O   0  0  0  0  0  0  0  0  0  0  0  0
    2.3319    0.8326   -1.1811 C   0  0  0  0  0  0  0  0  0  0  0  0
    2.5129    2.0340   -1.0069 O   0  0  0  0  0  0  0  0  0  0  0  0
    3.2914   -0.0082   -1.6818 N   0  0  0  0  0  0  0  0  0  0  0  0
    4.6438    0.4277   -1.9548 C   0  0  0  0  0  0  0  0  0  0  0  0
    5.5684    0.2576   -0.7761 C   0  0  0  0  0  0  0  0  0  0  0  0
    5.4409   -0.8024    0.1376 C   0  0  0  0  0  0  0  0  0  0  0  0
    6.3429   -0.9344    1.1965 C   0  0  0  0  0  0  0  0  0  0  0  0
    7.3806   -0.0192    1.3370 C   0  0  0  0  0  0  0  0  0  0  0  0
    7.5411    1.0225    0.4365 C   0  0  0  0  0  0  0  0  0  0  0  0
    6.6392    1.1473   -0.6140 C   0  0  0  0  0  0  0  0  0  0  0  0
    8.2434   -0.1532    2.3524 F   0  0  0  0  0  0  0  0  0  0  0  0
    6.8172    2.1426   -1.4948 F   0  0  0  0  0  0  0  0  0  0  0  0
    1.6090   -2.0713   -1.3305 O   0  0  0  0  0  0  0  0  0  0  0  0
   -0.7774   -3.1443   -0.6640 O   0  0  0  0  0  0  0  0  0  0  0  0
   -3.1114   -2.5969    0.5329 O   0  0  0  0  0  0  0  0  0  0  0  0
   -6.0471   -1.1180   -0.4664 C   0  0  0  0  0  0  0  0  0  0  0  0
    0.1364    2.0342   -0.3291 H   0  0  0  0  0  0  0  0  0  0  0  0
   -3.7452    0.8523   -1.0986 H   0  0  0  0  0  0  0  0  0  0  0  0
   -2.1495    2.4289   -0.0488 H   0  0  0  0  0  0  0  0  0  0  0  0
   -2.1962    1.5391    1.4688 H   0  0  0  0  0  0  0  0  0  0  0  0
   -5.2097   -1.8052    1.3601 H   0  0  0  0  0  0  0  0  0  0  0  0
   -6.9661    0.3373    1.3876 H   0  0  0  0  0  0  0  0  0  0  0  0
   -6.0032   -0.2099    2.7446 H   0  0  0  0  0  0  0  0  0  0  0  0
   -5.8548    2.2989    2.0541 H   0  0  0  0  0  0  0  0  0  0  0  0
   -4.3518    1.4707    2.4539 H   0  0  0  0  0  0  0  0  0  0  0  0
    3.0813   -1.0013   -1.7651 H   0  0  0  0  0  0  0  0  0  0  0  0
    4.6130    1.4755   -2.2732 H   0  0  0  0  0  0  0  0  0  0  0  0
    5.0168   -0.1743   -2.7904 H   0  0  0  0  0  0  0  0  0  0  0  0
    4.6405   -1.5319    0.0362 H   0  0  0  0  0  0  0  0  0  0  0  0
    6.2441   -1.7467    1.9103 H   0  0  0  0  0  0  0  0  0  0  0  0
    8.3580    1.7254    0.5465 H   0  0  0  0  0  0  0  0  0  0  0  0
    0.0743   -3.5122   -0.9752 H   0  0  0  0  0  0  0  0  0  0  0  0
   -7.0467   -1.4958   -0.2273 H   0  0  0  0  0  0  0  0  0  0  0  0
   -6.1631   -0.2073   -1.0637 H   0  0  0  0  0  0  0  0  0  0  0  0
   -5.5468   -1.8633   -1.0941 H   0  0  0  0  0  0  0  0  0  0  0  0
  1  2  1  0
  2  3  1  0
  3  4  2  0
  5  6  1  0
  6  1  2  0
  4  7  1  0
  5  4  1  0
 10  5  1  0
  7  8  1  0
  9 10  1  0
  8 11  1  0
  9  8  1  0
 14  9  1  0
 11 12  1  0
 12 13  1  0
 13 14  1  0
  1 15  1  0
 15 16  2  0
 15 17  1  0
 17 18  1  0
 18 19  1  0
 19 20  2  0
 19 24  1  0
 20 21  1  0
 21 22  2  0
 22 23  1  0
 23 24  2  0
 22 25  1  0
 24 26  1  0
  2 27  2  0
  3 28  1  0
  7 29  2  0
 11 30  1  0
  6 31  1  0
  9 32  1  6
 10 33  1  0
 10 34  1  0
 11 35  1  1
 12 36  1  0
 12 37  1  0
 13 38  1  0
 13 39  1  0
 17 40  1  0
 18 41  1  0
 18 42  1  0
 20 43  1  0
 21 44  1  0
 23 45  1  0
 28 46  1  0
 30 47  1  0
 30 48  1  0
 30 49  1  0
M  END
$$$$
