
     RDKit          3D

110111  0  0  0  0  0  0  0  0999 V2000
   -4.6200    0.7620    0.6557 N   0  0  0  0  0  0  0  0  0  0  0  0
   -3.3966    1.3633    0.8549 C   0  0  0  0  0  0  0  0  0  0  0  0
   -5.6454    0.8739    1.6921 C   0  0  0  0  0  0  0  0  0  0  0  0
   -5.0493    0.0984   -0.5786 C   0  0  0  0  0  0  0  0  0  0  0  0
   -2.4823    1.1319   -0.1411 N   0  0  0  0  0  0  0  0  0  0  0  0
   -3.1426    2.0546    1.8374 O   0  0  0  0  0  0  0  0  0  0  0  0
   -6.6125   -0.3120    1.6356 C   0  0  0  0  0  0  0  0  0  0  0  0
   -6.5720    0.1412   -0.7302 C   0  0  0  0  0  0  0  0  0  0  0  0
   -1.1119    1.5855    0.0222 C   0  0  0  0  0  0  0  0  0  0  0  0
   -7.2664   -0.4721    0.3654 O   0  0  0  0  0  0  0  0  0  0  0  0
   -0.2988    0.6016    0.8844 C   0  0  0  0  0  0  0  0  0  0  0  0
   -0.3623   -0.7853    0.4134 N   0  0  0  0  0  0  0  0  0  0  0  0
    0.3026   -1.0872   -0.8595 C   0  0  0  0  0  0  0  0  0  0  0  0
    1.8492   -1.1281   -0.8706 C   0  0  1  0  0  0  0  0  0  0  0  0
    2.5021    0.2537   -1.0351 C   0  0  0  0  0  0  0  0  0  0  0  0
    2.3105   -1.7819    0.3223 O   0  0  0  0  0  0  0  0  0  0  0  0
    3.7097    0.1445   -1.8057 O   0  0  0  0  0  0  0  0  0  0  0  0
    4.9108    0.2323   -1.1629 C   0  0  0  0  0  0  0  0  0  0  0  0
    5.1365   -0.0286    0.1890 C   0  0  0  0  0  0  0  0  0  0  0  0
    5.9910    0.5683   -1.9821 C   0  0  0  0  0  0  0  0  0  0  0  0
    6.4238    0.0849    0.7272 C   0  0  0  0  0  0  0  0  0  0  0  0
    7.2787    0.6803   -1.4532 C   0  0  0  0  0  0  0  0  0  0  0  0
    7.4838    0.4433   -0.1009 C   0  0  0  0  0  0  0  0  0  0  0  0
    8.7534    0.5646    0.3827 O   0  0  0  0  0  0  0  0  0  0  0  0
   -5.3900    0.5838    0.2792 N   0  0  0  0  0  0  0  0  0  0  0  0
   -4.2711   -0.0000    0.8395 C   0  0  0  0  0  0  0  0  0  0  0  0
   -5.5239    1.0360   -1.1092 C   0  0  0  0  0  0  0  0  0  0  0  0
   -6.6352    0.5976    1.0572 C   0  0  0  0  0  0  0  0  0  0  0  0
   -3.1467    0.0220    0.0497 N   0  0  0  0  0  0  0  0  0  0  0  0
   -4.2728   -0.5051    1.9595 O   0  0  0  0  0  0  0  0  0  0  0  0
   -6.6886    2.0161   -1.2531 C   0  0  0  0  0  0  0  0  0  0  0  0
   -7.8609    0.4528    0.1509 C   0  0  0  0  0  0  0  0  0  0  0  0
   -1.9026   -0.5075    0.5901 C   0  0  0  0  0  0  0  0  0  0  0  0
   -7.9526    1.4584   -0.8684 O   0  0  0  0  0  0  0  0  0  0  0  0
   -0.7921   -0.5563   -0.4706 C   0  0  0  0  0  0  0  0  0  0  0  0
    0.4830   -0.9847    0.1119 N   0  0  0  0  0  0  0  0  0  0  0  0
    1.5665   -0.9619   -0.8778 C   0  0  0  0  0  0  0  0  0  0  0  0
    2.8589   -1.6048   -0.3379 C   0  0  1  0  0  0  0  0  0  0  0  0
    3.3530   -0.9454    0.9598 C   0  0  0  0  0  0  0  0  0  0  0  0
    2.6121   -3.0014   -0.0992 O   0  0  0  0  0  0  0  0  0  0  0  0
    4.7424   -1.2327    1.1724 O   0  0  0  0  0  0  0  0  0  0  0  0
    5.6849   -0.4456    0.5742 C   0  0  0  0  0  0  0  0  0  0  0  0
    5.4549    0.7164   -0.1676 C   0  0  0  0  0  0  0  0  0  0  0  0
    7.0001   -0.8887    0.7537 C   0  0  0  0  0  0  0  0  0  0  0  0
    6.5307    1.4272   -0.7160 C   0  0  0  0  0  0  0  0  0  0  0  0
    8.0730   -0.1864    0.2014 C   0  0  0  0  0  0  0  0  0  0  0  0
    7.8312    0.9699   -0.5262 C   0  0  0  0  0  0  0  0  0  0  0  0
    8.9045    1.6334   -1.0424 O   0  0  0  0  0  0  0  0  0  0  0  0
    0.5806   -0.2227   -0.1265 C   0  0  0  0  0  0  0  0  0  0  0  0
   -0.5775    0.2179    0.3800 C   0  0  0  0  0  0  0  0  0  0  0  0
   -1.8312   -0.3622   -0.1043 C   0  0  0  0  0  0  0  0  0  0  0  0
   -2.8759    0.2001    0.5208 O   0  0  0  0  0  0  0  0  0  0  0  0
   -1.9660   -1.2252   -0.9497 O   0  0  0  0  0  0  0  0  0  0  0  0
    1.8320    0.3629    0.3560 C   0  0  0  0  0  0  0  0  0  0  0  0
    2.8758   -0.2091   -0.2615 O   0  0  0  0  0  0  0  0  0  0  0  0
    1.9613    1.2385    1.1892 O   0  0  0  0  0  0  0  0  0  0  0  0
   -5.1784    0.9397    2.6813 H   0  0  0  0  0  0  0  0  0  0  0  0
   -6.1865    1.8118    1.5118 H   0  0  0  0  0  0  0  0  0  0  0  0
   -4.7075   -0.9406   -0.5051 H   0  0  0  0  0  0  0  0  0  0  0  0
   -4.5725    0.5730   -1.4443 H   0  0  0  0  0  0  0  0  0  0  0  0
   -2.5386    0.1972   -0.5174 H   0  0  0  0  0  0  0  0  0  0  0  0
   -6.0781   -1.2464    1.8468 H   0  0  0  0  0  0  0  0  0  0  0  0
   -7.3924   -0.2019    2.3969 H   0  0  0  0  0  0  0  0  0  0  0  0
   -6.8768   -0.3744   -1.6460 H   0  0  0  0  0  0  0  0  0  0  0  0
   -6.9208    1.1777   -0.8056 H   0  0  0  0  0  0  0  0  0  0  0  0
   -1.1078    2.5784    0.4848 H   0  0  0  0  0  0  0  0  0  0  0  0
   -0.6806    1.6707   -0.9799 H   0  0  0  0  0  0  0  0  0  0  0  0
   -0.7200    0.6133    1.8989 H   0  0  0  0  0  0  0  0  0  0  0  0
    0.7331    0.9449    0.9868 H   0  0  0  0  0  0  0  0  0  0  0  0
   -0.0434   -1.4324    1.1342 H   0  0  0  0  0  0  0  0  0  0  0  0
   -0.0828   -0.4576   -1.6679 H   0  0  0  0  0  0  0  0  0  0  0  0
   -0.0333   -2.1019   -1.1107 H   0  0  0  0  0  0  0  0  0  0  0  0
    2.1625   -1.7649   -1.7049 H   0  0  0  0  0  0  0  0  0  0  0  0
    1.8503    0.8989   -1.6358 H   0  0  0  0  0  0  0  0  0  0  0  0
    2.6680    0.7658   -0.0816 H   0  0  0  0  0  0  0  0  0  0  0  0
    2.0134   -1.2393    1.0723 H   0  0  0  0  0  0  0  0  0  0  0  0
    4.3372   -0.3452    0.8488 H   0  0  0  0  0  0  0  0  0  0  0  0
    5.8309    0.7525   -3.0406 H   0  0  0  0  0  0  0  0  0  0  0  0
    6.5760   -0.1220    1.7814 H   0  0  0  0  0  0  0  0  0  0  0  0
    8.1115    0.9439   -2.0968 H   0  0  0  0  0  0  0  0  0  0  0  0
    8.7447    0.3550    1.3304 H   0  0  0  0  0  0  0  0  0  0  0  0
   -4.6005    1.5036   -1.4603 H   0  0  0  0  0  0  0  0  0  0  0  0
   -5.7023    0.1371   -1.7171 H   0  0  0  0  0  0  0  0  0  0  0  0
   -6.6334   -0.1896    1.8144 H   0  0  0  0  0  0  0  0  0  0  0  0
   -6.6620    1.5644    1.5716 H   0  0  0  0  0  0  0  0  0  0  0  0
   -3.0405    0.8865   -0.4547 H   0  0  0  0  0  0  0  0  0  0  0  0
   -6.5118    2.9044   -0.6348 H   0  0  0  0  0  0  0  0  0  0  0  0
   -6.7797    2.3491   -2.2924 H   0  0  0  0  0  0  0  0  0  0  0  0
   -7.8503   -0.5193   -0.3507 H   0  0  0  0  0  0  0  0  0  0  0  0
   -8.7780    0.5046    0.7471 H   0  0  0  0  0  0  0  0  0  0  0  0
   -2.0950   -1.5098    0.9938 H   0  0  0  0  0  0  0  0  0  0  0  0
   -1.6036    0.1432    1.4220 H   0  0  0  0  0  0  0  0  0  0  0  0
   -1.0957   -1.2366   -1.2768 H   0  0  0  0  0  0  0  0  0  0  0  0
   -0.6800    0.4434   -0.9076 H   0  0  0  0  0  0  0  0  0  0  0  0
    0.3969   -1.9387    0.4749 H   0  0  0  0  0  0  0  0  0  0  0  0
    1.2549   -1.5183   -1.7714 H   0  0  0  0  0  0  0  0  0  0  0  0
    1.7735    0.0735   -1.1711 H   0  0  0  0  0  0  0  0  0  0  0  0
    3.6344   -1.5526   -1.1105 H   0  0  0  0  0  0  0  0  0  0  0  0
    3.1600    0.1315    1.0011 H   0  0  0  0  0  0  0  0  0  0  0  0
    2.8304   -1.3873    1.8164 H   0  0  0  0  0  0  0  0  0  0  0  0
    2.6601   -3.4531   -0.9585 H   0  0  0  0  0  0  0  0  0  0  0  0
    4.4559    1.1051   -0.3333 H   0  0  0  0  0  0  0  0  0  0  0  0
    7.1886   -1.7926    1.3276 H   0  0  0  0  0  0  0  0  0  0  0  0
    6.3343    2.3313   -1.2858 H   0  0  0  0  0  0  0  0  0  0  0  0
    9.0889   -0.5396    0.3413 H   0  0  0  0  0  0  0  0  0  0  0  0
    8.5965    2.4669   -1.4320 H   0  0  0  0  0  0  0  0  0  0  0  0
    0.6375   -0.9932   -0.8854 H   0  0  0  0  0  0  0  0  0  0  0  0
   -0.6373    0.9894    1.1391 H   0  0  0  0  0  0  0  0  0  0  0  0
   -3.6574   -0.2443    0.1302 H   0  0  0  0  0  0  0  0  0  0  0  0
    3.6582    0.2479    0.1131 H   0  0  0  0  0  0  0  0  0  0  0  0
  3  7  1  0
  4  8  1  0
  5  9  1  0
  7 10  1  0
  9 11  1  0
 11 12  1  0
 12 13  1  0
 13 14  1  0
 14 15  1  0
 14 16  1  0
 15 17  1  0
 17 18  1  0
 18 19  2  0
 18 20  1  0
 19 21  1  0
 20 22  2  0
 21 23  2  0
 23 24  1  0
  8 10  1  0
 22 23  1  0
  1  2  1  0
  1  3  1  0
  1  4  1  0
  2  5  1  0
  2  6  2  0
 27 31  1  0
 28 32  1  0
 29 33  1  0
 31 34  1  0
 33 35  1  0
 35 36  1  0
 36 37  1  0
 37 38  1  0
 38 39  1  0
 38 40  1  0
 39 41  1  0
 41 42  1  0
 42 43  2  0
 42 44  1  0
 43 45  1  0
 44 46  2  0
 45 47  2  0
 47 48  1  0
 32 34  1  0
 46 47  1  0
 25 26  1  0
 25 27  1  0
 25 28  1  0
 26 29  1  0
 26 30  2  0
 49 50  2  0
 49 54  1  0
 50 51  1  0
 51 52  1  0
 51 53  2  0
 54 55  1  0
 54 56  2  0
  3 57  1  0
  3 58  1  0
  4 59  1  0
  4 60  1  0
  5 61  1  0
  7 62  1  0
  7 63  1  0
  8 64  1  0
  8 65  1  0
  9 66  1  0
  9 67  1  0
 11 68  1  0
 11 69  1  0
 12 70  1  0
 13 71  1  0
 13 72  1  0
 14 73  1  6
 15 74  1  0
 15 75  1  0
 16 76  1  0
 19 77  1  0
 20 78  1  0
 21 79  1  0
 22 80  1  0
 24 81  1  0
 27 82  1  0
 27 83  1  0
 28 84  1  0
 28 85  1  0
 29 86  1  0
 31 87  1  0
 31 88  1  0
 32 89  1  0
 32 90  1  0
 33 91  1  0
 33 92  1  0
 35 93  1  0
 35 94  1  0
 36 95  1  0
 37 96  1  0
 37 97  1  0
 38 98  1  6
 39 99  1  0
 39100  1  0
 40101  1  0
 43102  1  0
 44103  1  0
 45104  1  0
 46105  1  0
 48106  1  0
 49107  1  0
 50108  1  0
 52109  1  0
 55110  1  0
M  END
$$$$
