
     RDKit          3D

110111  0  0  0  0  0  0  0  0999 V2000
   -5.2563   -0.2275   -0.2544 N   0  0  0  0  0  0  0  0  0  0  0  0
   -4.2903    0.7681   -0.2341 C   0  0  0  0  0  0  0  0  0  0  0  0
   -6.6331    0.2030   -0.5156 C   0  0  0  0  0  0  0  0  0  0  0  0
   -5.1650   -1.4511    0.5524 C   0  0  0  0  0  0  0  0  0  0  0  0
   -3.0244    0.3223    0.0670 N   0  0  0  0  0  0  0  0  0  0  0  0
   -4.5319    1.9478   -0.4770 O   0  0  0  0  0  0  0  0  0  0  0  0
   -7.5022   -0.9574   -1.0043 C   0  0  0  0  0  0  0  0  0  0  0  0
   -6.0946   -2.5455    0.0219 C   0  0  0  0  0  0  0  0  0  0  0  0
   -1.9206    1.2678    0.0251 C   0  0  0  0  0  0  0  0  0  0  0  0
   -7.4434   -2.0681   -0.0968 O   0  0  0  0  0  0  0  0  0  0  0  0
   -0.6565    0.6880    0.6741 C   0  0  0  0  0  0  0  0  0  0  0  0
    0.4810    1.6051    0.5404 N   0  0  0  0  0  0  0  0  0  0  0  0
    1.6751    1.0443    1.2048 C   0  0  0  0  0  0  0  0  0  0  0  0
    2.9606    1.7766    0.7648 C   0  0  1  0  0  0  0  0  0  0  0  0
    3.3935    1.4175   -0.6680 C   0  0  0  0  0  0  0  0  0  0  0  0
    2.7569    3.1954    0.8619 O   0  0  0  0  0  0  0  0  0  0  0  0
    3.7146    0.0324   -0.8043 O   0  0  0  0  0  0  0  0  0  0  0  0
    4.9798   -0.3790   -0.4874 C   0  0  0  0  0  0  0  0  0  0  0  0
    5.2034   -1.7467   -0.6778 C   0  0  0  0  0  0  0  0  0  0  0  0
    6.0226    0.4228   -0.0131 C   0  0  0  0  0  0  0  0  0  0  0  0
    6.4483   -2.3118   -0.3965 C   0  0  0  0  0  0  0  0  0  0  0  0
    7.2737   -0.1404    0.2695 C   0  0  0  0  0  0  0  0  0  0  0  0
    7.4753   -1.5039    0.0740 C   0  0  0  0  0  0  0  0  0  0  0  0
    8.6811   -2.0878    0.3262 O   0  0  0  0  0  0  0  0  0  0  0  0
   -5.3890   -0.3885   -0.4256 N   0  0  0  0  0  0  0  0  0  0  0  0
   -4.2068    0.1502   -0.9006 C   0  0  0  0  0  0  0  0  0  0  0  0
   -5.5081   -1.1965    0.7954 C   0  0  0  0  0  0  0  0  0  0  0  0
   -6.6416    0.2733   -0.7933 C   0  0  0  0  0  0  0  0  0  0  0  0
   -3.0816   -0.5515   -0.5454 N   0  0  0  0  0  0  0  0  0  0  0  0
   -4.1622    1.1537   -1.6073 O   0  0  0  0  0  0  0  0  0  0  0  0
   -6.0976   -0.3475    1.9328 C   0  0  0  0  0  0  0  0  0  0  0  0
   -7.1684    1.0933    0.3875 C   0  0  0  0  0  0  0  0  0  0  0  0
   -1.7829   -0.1754   -1.0807 C   0  0  0  0  0  0  0  0  0  0  0  0
   -7.3496    0.2480    1.5423 O   0  0  0  0  0  0  0  0  0  0  0  0
   -1.1384    0.9998   -0.3219 C   0  0  0  0  0  0  0  0  0  0  0  0
    0.1513    1.4261   -0.8833 N   0  0  0  0  0  0  0  0  0  0  0  0
    1.3252    1.0571   -0.0724 C   0  0  0  0  0  0  0  0  0  0  0  0
    1.7959   -0.4074   -0.2329 C   0  0  1  0  0  0  0  0  0  0  0  0
    3.1911   -0.6190    0.3824 C   0  0  0  0  0  0  0  0  0  0  0  0
    0.8688   -1.2940    0.4068 O   0  0  0  0  0  0  0  0  0  0  0  0
    4.1489    0.1358   -0.3563 O   0  0  0  0  0  0  0  0  0  0  0  0
    5.4644   -0.0140   -0.0145 C   0  0  0  0  0  0  0  0  0  0  0  0
    5.9678   -0.8617    0.9761 C   0  0  0  0  0  0  0  0  0  0  0  0
    6.3473    0.7819   -0.7517 C   0  0  0  0  0  0  0  0  0  0  0  0
    7.3464   -0.9206    1.2092 C   0  0  0  0  0  0  0  0  0  0  0  0
    7.7243    0.7256   -0.5202 C   0  0  0  0  0  0  0  0  0  0  0  0
    8.2127   -0.1328    0.4575 C   0  0  0  0  0  0  0  0  0  0  0  0
    9.5464   -0.2255    0.7183 O   0  0  0  0  0  0  0  0  0  0  0  0
   -0.6365    0.1351    0.5442 C   0  0  0  0  0  0  0  0  0  0  0  0
    0.4904   -0.0405   -0.1586 C   0  0  0  0  0  0  0  0  0  0  0  0
    1.7764    0.2331    0.4863 C   0  0  0  0  0  0  0  0  0  0  0  0
    2.7837   -0.0065   -0.3677 O   0  0  0  0  0  0  0  0  0  0  0  0
    1.9636    0.6078    1.6269 O   0  0  0  0  0  0  0  0  0  0  0  0
   -1.9686   -0.1084   -0.0139 C   0  0  0  0  0  0  0  0  0  0  0  0
   -1.9588   -0.5168   -1.2916 O   0  0  0  0  0  0  0  0  0  0  0  0
   -3.0071    0.0304    0.6039 O   0  0  0  0  0  0  0  0  0  0  0  0
   -6.6443    1.0124   -1.2511 H   0  0  0  0  0  0  0  0  0  0  0  0
   -7.0245    0.5973    0.4290 H   0  0  0  0  0  0  0  0  0  0  0  0
   -5.4621   -1.1758    1.5730 H   0  0  0  0  0  0  0  0  0  0  0  0
   -4.1403   -1.8305    0.5943 H   0  0  0  0  0  0  0  0  0  0  0  0
   -2.8270   -0.5789   -0.3417 H   0  0  0  0  0  0  0  0  0  0  0  0
   -8.5484   -0.6431   -1.0775 H   0  0  0  0  0  0  0  0  0  0  0  0
   -7.1823   -1.2983   -1.9945 H   0  0  0  0  0  0  0  0  0  0  0  0
   -6.0985   -3.3950    0.7119 H   0  0  0  0  0  0  0  0  0  0  0  0
   -5.7634   -2.9077   -0.9619 H   0  0  0  0  0  0  0  0  0  0  0  0
   -2.2222    2.1914    0.5382 H   0  0  0  0  0  0  0  0  0  0  0  0
   -1.7347    1.5118   -1.0292 H   0  0  0  0  0  0  0  0  0  0  0  0
   -0.4164   -0.2698    0.1949 H   0  0  0  0  0  0  0  0  0  0  0  0
   -0.8578    0.4816    1.7318 H   0  0  0  0  0  0  0  0  0  0  0  0
    0.2435    2.4808    1.0145 H   0  0  0  0  0  0  0  0  0  0  0  0
    1.5447    1.1702    2.2875 H   0  0  0  0  0  0  0  0  0  0  0  0
    1.7755   -0.0292    1.0052 H   0  0  0  0  0  0  0  0  0  0  0  0
    3.7553    1.5119    1.4704 H   0  0  0  0  0  0  0  0  0  0  0  0
    2.5609    1.6136   -1.3566 H   0  0  0  0  0  0  0  0  0  0  0  0
    4.2002    2.0684   -1.0284 H   0  0  0  0  0  0  0  0  0  0  0  0
    2.0108    3.3894    0.2616 H   0  0  0  0  0  0  0  0  0  0  0  0
    4.4020   -2.3781   -1.0528 H   0  0  0  0  0  0  0  0  0  0  0  0
    5.9045    1.4908    0.1469 H   0  0  0  0  0  0  0  0  0  0  0  0
    6.6156   -3.3745   -0.5485 H   0  0  0  0  0  0  0  0  0  0  0  0
    8.0686    0.4974    0.6434 H   0  0  0  0  0  0  0  0  0  0  0  0
    9.2928   -1.4080    0.6561 H   0  0  0  0  0  0  0  0  0  0  0  0
   -6.1876   -2.0256    0.5594 H   0  0  0  0  0  0  0  0  0  0  0  0
   -4.5492   -1.6119    1.1143 H   0  0  0  0  0  0  0  0  0  0  0  0
   -7.3537   -0.5229   -1.0395 H   0  0  0  0  0  0  0  0  0  0  0  0
   -6.5189    0.9048   -1.6806 H   0  0  0  0  0  0  0  0  0  0  0  0
   -3.2373   -1.5445   -0.4523 H   0  0  0  0  0  0  0  0  0  0  0  0
   -5.4041    0.4514    2.2343 H   0  0  0  0  0  0  0  0  0  0  0  0
   -6.2906   -0.9809    2.8075 H   0  0  0  0  0  0  0  0  0  0  0  0
   -8.1422    1.5328    0.1376 H   0  0  0  0  0  0  0  0  0  0  0  0
   -6.4818    1.9098    0.6509 H   0  0  0  0  0  0  0  0  0  0  0  0
   -1.9053    0.0804   -2.1397 H   0  0  0  0  0  0  0  0  0  0  0  0
   -1.1542   -1.0666   -1.0284 H   0  0  0  0  0  0  0  0  0  0  0  0
   -1.8091    1.8656   -0.3860 H   0  0  0  0  0  0  0  0  0  0  0  0
   -1.0685    0.7642    0.7465 H   0  0  0  0  0  0  0  0  0  0  0  0
    0.2566    1.0798   -1.8340 H   0  0  0  0  0  0  0  0  0  0  0  0
    1.1391    1.2864    0.9848 H   0  0  0  0  0  0  0  0  0  0  0  0
    2.1344    1.7232   -0.3976 H   0  0  0  0  0  0  0  0  0  0  0  0
    1.8281   -0.6549   -1.3026 H   0  0  0  0  0  0  0  0  0  0  0  0
    3.1867   -0.3179    1.4393 H   0  0  0  0  0  0  0  0  0  0  0  0
    3.4279   -1.6891    0.3271 H   0  0  0  0  0  0  0  0  0  0  0  0
    1.1337   -2.2045    0.1796 H   0  0  0  0  0  0  0  0  0  0  0  0
    5.3240   -1.4924    1.5805 H   0  0  0  0  0  0  0  0  0  0  0  0
    5.9579    1.4509   -1.5169 H   0  0  0  0  0  0  0  0  0  0  0  0
    7.7431   -1.5756    1.9806 H   0  0  0  0  0  0  0  0  0  0  0  0
    8.3890    1.3505   -1.1092 H   0  0  0  0  0  0  0  0  0  0  0  0
   10.0175    0.3767    0.1176 H   0  0  0  0  0  0  0  0  0  0  0  0
   -0.6286    0.4721    1.5764 H   0  0  0  0  0  0  0  0  0  0  0  0
    0.5022   -0.3737   -1.1885 H   0  0  0  0  0  0  0  0  0  0  0  0
    3.5920    0.1953    0.1495 H   0  0  0  0  0  0  0  0  0  0  0  0
   -2.9086   -0.6278   -1.5061 H   0  0  0  0  0  0  0  0  0  0  0  0
  3  7  1  0
  4  8  1  0
  5  9  1  0
  7 10  1  0
  9 11  1  0
 11 12  1  0
 12 13  1  0
 13 14  1  0
 14 15  1  0
 14 16  1  0
 15 17  1  0
 17 18  1  0
 18 19  2  0
 18 20  1  0
 19 21  1  0
 20 22  2  0
 21 23  2  0
 23 24  1  0
  8 10  1  0
 22 23  1  0
  1  2  1  0
  1  3  1  0
  1  4  1  0
  2  5  1  0
  2  6  2  0
 27 31  1  0
 28 32  1  0
 29 33  1  0
 31 34  1  0
 33 35  1  0
 35 36  1  0
 36 37  1  0
 37 38  1  0
 38 39  1  0
 38 40  1  0
 39 41  1  0
 41 42  1  0
 42 43  2  0
 42 44  1  0
 43 45  1  0
 44 46  2  0
 45 47  2  0
 47 48  1  0
 32 34  1  0
 46 47  1  0
 25 26  1  0
 25 27  1  0
 25 28  1  0
 26 29  1  0
 26 30  2  0
 49 50  2  0
 49 54  1  0
 50 51  1  0
 51 52  1  0
 51 53  2  0
 54 55  1  0
 54 56  2  0
  3 57  1  0
  3 58  1  0
  4 59  1  0
  4 60  1  0
  5 61  1  0
  7 62  1  0
  7 63  1  0
  8 64  1  0
  8 65  1  0
  9 66  1  0
  9 67  1  0
 11 68  1  0
 11 69  1  0
 12 70  1  0
 13 71  1  0
 13 72  1  0
 14 73  1  1
 15 74  1  0
 15 75  1  0
 16 76  1  0
 19 77  1  0
 20 78  1  0
 21 79  1  0
 22 80  1  0
 24 81  1  0
 27 82  1  0
 27 83  1  0
 28 84  1  0
 28 85  1  0
 29 86  1  0
 31 87  1  0
 31 88  1  0
 32 89  1  0
 32 90  1  0
 33 91  1  0
 33 92  1  0
 35 93  1  0
 35 94  1  0
 36 95  1  0
 37 96  1  0
 37 97  1  0
 38 98  1  6
 39 99  1  0
 39100  1  0
 40101  1  0
 43102  1  0
 44103  1  0
 45104  1  0
 46105  1  0
 48106  1  0
 49107  1  0
 50108  1  0
 52109  1  0
 55110  1  0
M  END
$$$$
