
     RDKit          3D

110111  0  0  0  0  0  0  0  0999 V2000
   -5.1766    0.0576   -0.7283 N   0  0  0  0  0  0  0  0  0  0  0  0
   -3.9016    0.5811   -0.6716 C   0  0  0  0  0  0  0  0  0  0  0  0
   -6.2976    0.9661   -0.9770 C   0  0  0  0  0  0  0  0  0  0  0  0
   -5.5495   -1.3143   -0.3701 C   0  0  0  0  0  0  0  0  0  0  0  0
   -2.9109   -0.3569   -0.5258 N   0  0  0  0  0  0  0  0  0  0  0  0
   -3.6735    1.7834   -0.7440 O   0  0  0  0  0  0  0  0  0  0  0  0
   -7.5029    0.2066   -1.5393 C   0  0  0  0  0  0  0  0  0  0  0  0
   -6.9691   -1.3671    0.2030 C   0  0  0  0  0  0  0  0  0  0  0  0
   -1.5130    0.0445   -0.4920 C   0  0  0  0  0  0  0  0  0  0  0  0
   -7.9638   -0.8646   -0.7010 O   0  0  0  0  0  0  0  0  0  0  0  0
   -1.1171    0.7273    0.8302 C   0  0  0  0  0  0  0  0  0  0  0  0
    0.3123    1.0584    0.9280 N   0  0  0  0  0  0  0  0  0  0  0  0
    1.1588   -0.1274    1.1261 C   0  0  0  0  0  0  0  0  0  0  0  0
    2.6015    0.2649    1.4983 C   0  0  1  0  0  0  0  0  0  0  0  0
    3.2782    1.1231    0.4212 C   0  0  0  0  0  0  0  0  0  0  0  0
    2.5835    0.9780    2.7476 O   0  0  0  0  0  0  0  0  0  0  0  0
    4.6507    1.3508    0.7762 O   0  0  0  0  0  0  0  0  0  0  0  0
    5.6018    0.5098    0.2724 C   0  0  0  0  0  0  0  0  0  0  0  0
    5.3742   -0.7262   -0.3370 C   0  0  0  0  0  0  0  0  0  0  0  0
    6.9160    0.9625    0.4296 C   0  0  0  0  0  0  0  0  0  0  0  0
    6.4496   -1.4950   -0.7969 C   0  0  0  0  0  0  0  0  0  0  0  0
    7.9902    0.2011   -0.0317 C   0  0  0  0  0  0  0  0  0  0  0  0
    7.7482   -1.0215   -0.6444 C   0  0  0  0  0  0  0  0  0  0  0  0
    8.8215   -1.7355   -1.0857 O   0  0  0  0  0  0  0  0  0  0  0  0
   -4.9284    0.6192   -0.0146 N   0  0  0  0  0  0  0  0  0  0  0  0
   -3.7549    0.7887   -0.7238 C   0  0  0  0  0  0  0  0  0  0  0  0
   -5.3304   -0.6159    0.6682 C   0  0  0  0  0  0  0  0  0  0  0  0
   -6.0033    1.6025   -0.1838 C   0  0  0  0  0  0  0  0  0  0  0  0
   -2.8255   -0.2055   -0.5564 N   0  0  0  0  0  0  0  0  0  0  0  0
   -3.5538    1.7448   -1.4649 O   0  0  0  0  0  0  0  0  0  0  0  0
   -6.6418   -0.4375    1.4410 C   0  0  0  0  0  0  0  0  0  0  0  0
   -7.3426    0.9018   -0.4329 C   0  0  0  0  0  0  0  0  0  0  0  0
   -1.5349   -0.1337   -1.2208 C   0  0  0  0  0  0  0  0  0  0  0  0
   -7.7294   -0.0027    0.6150 O   0  0  0  0  0  0  0  0  0  0  0  0
   -0.5903    0.9064   -0.5820 C   0  0  0  0  0  0  0  0  0  0  0  0
    0.7257    1.0271   -1.2287 N   0  0  0  0  0  0  0  0  0  0  0  0
    1.5746   -0.1577   -1.0081 C   0  0  0  0  0  0  0  0  0  0  0  0
    3.0414    0.1592   -1.3707 C   0  0  1  0  0  0  0  0  0  0  0  0
    3.9212   -1.0955   -1.3105 C   0  0  0  0  0  0  0  0  0  0  0  0
    3.1062    0.7171   -2.6895 O   0  0  0  0  0  0  0  0  0  0  0  0
    3.9676   -1.6526    0.0044 O   0  0  0  0  0  0  0  0  0  0  0  0
    4.9072   -1.1808    0.8790 C   0  0  0  0  0  0  0  0  0  0  0  0
    5.8057   -0.1369    0.6460 C   0  0  0  0  0  0  0  0  0  0  0  0
    4.9288   -1.8341    2.1157 C   0  0  0  0  0  0  0  0  0  0  0  0
    6.7202    0.2430    1.6360 C   0  0  0  0  0  0  0  0  0  0  0  0
    5.8374   -1.4566    3.1063 C   0  0  0  0  0  0  0  0  0  0  0  0
    6.7291   -0.4226    2.8568 C   0  0  0  0  0  0  0  0  0  0  0  0
    7.6070   -0.0879    3.8444 O   0  0  0  0  0  0  0  0  0  0  0  0
    0.6259   -0.2396    0.4791 C   0  0  0  0  0  0  0  0  0  0  0  0
   -0.4832    0.0586   -0.2101 C   0  0  0  0  0  0  0  0  0  0  0  0
   -1.7688   -0.4702    0.2508 C   0  0  0  0  0  0  0  0  0  0  0  0
   -2.7551   -0.0623   -0.5616 O   0  0  0  0  0  0  0  0  0  0  0  0
   -1.9710   -1.1746    1.2203 O   0  0  0  0  0  0  0  0  0  0  0  0
    1.9556    0.2485    0.1047 C   0  0  0  0  0  0  0  0  0  0  0  0
    1.9598    1.0213   -0.9922 O   0  0  0  0  0  0  0  0  0  0  0  0
    2.9793   -0.0063    0.7124 O   0  0  0  0  0  0  0  0  0  0  0  0
   -5.9906    1.7591   -1.6667 H   0  0  0  0  0  0  0  0  0  0  0  0
   -6.5513    1.4303   -0.0160 H   0  0  0  0  0  0  0  0  0  0  0  0
   -4.8382   -1.7249    0.3526 H   0  0  0  0  0  0  0  0  0  0  0  0
   -5.4936   -1.9027   -1.2927 H   0  0  0  0  0  0  0  0  0  0  0  0
   -3.1009   -1.2180   -1.0134 H   0  0  0  0  0  0  0  0  0  0  0  0
   -7.2488   -0.2311   -2.5119 H   0  0  0  0  0  0  0  0  0  0  0  0
   -8.3451    0.8882   -1.6949 H   0  0  0  0  0  0  0  0  0  0  0  0
   -7.2383   -2.3991    0.4515 H   0  0  0  0  0  0  0  0  0  0  0  0
   -7.0309   -0.7816    1.1287 H   0  0  0  0  0  0  0  0  0  0  0  0
   -1.3165    0.7072   -1.3425 H   0  0  0  0  0  0  0  0  0  0  0  0
   -0.9359   -0.8746   -0.6364 H   0  0  0  0  0  0  0  0  0  0  0  0
   -1.6763    1.6648    0.9258 H   0  0  0  0  0  0  0  0  0  0  0  0
   -1.4235    0.1080    1.6829 H   0  0  0  0  0  0  0  0  0  0  0  0
    0.4443    1.6536    1.7537 H   0  0  0  0  0  0  0  0  0  0  0  0
    1.1775   -0.7359    0.2161 H   0  0  0  0  0  0  0  0  0  0  0  0
    0.7495   -0.7332    1.9443 H   0  0  0  0  0  0  0  0  0  0  0  0
    3.1809   -0.6471    1.6780 H   0  0  0  0  0  0  0  0  0  0  0  0
    3.1738    0.7092   -0.5878 H   0  0  0  0  0  0  0  0  0  0  0  0
    2.8192    2.1176    0.4027 H   0  0  0  0  0  0  0  0  0  0  0  0
    3.4829    1.3426    2.8571 H   0  0  0  0  0  0  0  0  0  0  0  0
    4.3757   -1.1289   -0.4628 H   0  0  0  0  0  0  0  0  0  0  0  0
    7.1049    1.9208    0.9072 H   0  0  0  0  0  0  0  0  0  0  0  0
    6.2539   -2.4547   -1.2666 H   0  0  0  0  0  0  0  0  0  0  0  0
    9.0084    0.5627    0.0879 H   0  0  0  0  0  0  0  0  0  0  0  0
    8.5079   -2.5635   -1.4842 H   0  0  0  0  0  0  0  0  0  0  0  0
   -4.5400   -0.9318    1.3545 H   0  0  0  0  0  0  0  0  0  0  0  0
   -5.4499   -1.3846   -0.1053 H   0  0  0  0  0  0  0  0  0  0  0  0
   -5.7871    2.3014   -0.9965 H   0  0  0  0  0  0  0  0  0  0  0  0
   -6.0466    2.1742    0.7503 H   0  0  0  0  0  0  0  0  0  0  0  0
   -2.8365   -0.6837    0.3288 H   0  0  0  0  0  0  0  0  0  0  0  0
   -6.5179    0.2959    2.2472 H   0  0  0  0  0  0  0  0  0  0  0  0
   -6.9379   -1.3848    1.9043 H   0  0  0  0  0  0  0  0  0  0  0  0
   -8.1434    1.6407   -0.5401 H   0  0  0  0  0  0  0  0  0  0  0  0
   -7.3006    0.3216   -1.3631 H   0  0  0  0  0  0  0  0  0  0  0  0
   -1.1034   -1.1391   -1.1621 H   0  0  0  0  0  0  0  0  0  0  0  0
   -1.7005    0.1053   -2.2784 H   0  0  0  0  0  0  0  0  0  0  0  0
   -0.4666    0.6931    0.4870 H   0  0  0  0  0  0  0  0  0  0  0  0
   -1.0593    1.8963   -0.6301 H   0  0  0  0  0  0  0  0  0  0  0  0
    0.5737    1.1427   -2.2328 H   0  0  0  0  0  0  0  0  0  0  0  0
    1.5264   -0.4817    0.0383 H   0  0  0  0  0  0  0  0  0  0  0  0
    1.2071   -0.9748   -1.6388 H   0  0  0  0  0  0  0  0  0  0  0  0
    3.4206    0.9182   -0.6763 H   0  0  0  0  0  0  0  0  0  0  0  0
    4.9209   -0.9239   -1.7283 H   0  0  0  0  0  0  0  0  0  0  0  0
    3.4888   -1.8634   -1.9654 H   0  0  0  0  0  0  0  0  0  0  0  0
    2.5875    1.5421   -2.6322 H   0  0  0  0  0  0  0  0  0  0  0  0
    5.8241    0.4084   -0.2915 H   0  0  0  0  0  0  0  0  0  0  0  0
    4.2347   -2.6473    2.3094 H   0  0  0  0  0  0  0  0  0  0  0  0
    7.4116    1.0552    1.4338 H   0  0  0  0  0  0  0  0  0  0  0  0
    5.8487   -1.9676    4.0642 H   0  0  0  0  0  0  0  0  0  0  0  0
    8.2086    0.5976    3.5079 H   0  0  0  0  0  0  0  0  0  0  0  0
    0.6013   -0.8647    1.3660 H   0  0  0  0  0  0  0  0  0  0  0  0
   -0.4838    0.6809   -1.0958 H   0  0  0  0  0  0  0  0  0  0  0  0
   -3.5637   -0.4551   -0.1699 H   0  0  0  0  0  0  0  0  0  0  0  0
    2.9035    1.2635   -1.1037 H   0  0  0  0  0  0  0  0  0  0  0  0
  3  7  1  0
  4  8  1  0
  5  9  1  0
  7 10  1  0
  9 11  1  0
 11 12  1  0
 12 13  1  0
 13 14  1  0
 14 15  1  0
 14 16  1  0
 15 17  1  0
 17 18  1  0
 18 19  2  0
 18 20  1  0
 19 21  1  0
 20 22  2  0
 21 23  2  0
 23 24  1  0
  8 10  1  0
 22 23  1  0
  1  2  1  0
  1  3  1  0
  1  4  1  0
  2  5  1  0
  2  6  2  0
 27 31  1  0
 28 32  1  0
 29 33  1  0
 31 34  1  0
 33 35  1  0
 35 36  1  0
 36 37  1  0
 37 38  1  0
 38 39  1  0
 38 40  1  0
 39 41  1  0
 41 42  1  0
 42 43  2  0
 42 44  1  0
 43 45  1  0
 44 46  2  0
 45 47  2  0
 47 48  1  0
 32 34  1  0
 46 47  1  0
 25 26  1  0
 25 27  1  0
 25 28  1  0
 26 29  1  0
 26 30  2  0
 49 50  2  0
 49 54  1  0
 50 51  1  0
 51 52  1  0
 51 53  2  0
 54 55  1  0
 54 56  2  0
  3 57  1  0
  3 58  1  0
  4 59  1  0
  4 60  1  0
  5 61  1  0
  7 62  1  0
  7 63  1  0
  8 64  1  0
  8 65  1  0
  9 66  1  0
  9 67  1  0
 11 68  1  0
 11 69  1  0
 12 70  1  0
 13 71  1  0
 13 72  1  0
 14 73  1  1
 15 74  1  0
 15 75  1  0
 16 76  1  0
 19 77  1  0
 20 78  1  0
 21 79  1  0
 22 80  1  0
 24 81  1  0
 27 82  1  0
 27 83  1  0
 28 84  1  0
 28 85  1  0
 29 86  1  0
 31 87  1  0
 31 88  1  0
 32 89  1  0
 32 90  1  0
 33 91  1  0
 33 92  1  0
 35 93  1  0
 35 94  1  0
 36 95  1  0
 37 96  1  0
 37 97  1  0
 38 98  1  1
 39 99  1  0
 39100  1  0
 40101  1  0
 43102  1  0
 44103  1  0
 45104  1  0
 46105  1  0
 48106  1  0
 49107  1  0
 50108  1  0
 52109  1  0
 55110  1  0
M  END
$$$$
