
     RDKit          3D

 74 77  0  0  0  0  0  0  0  0999 V2000
   -0.7679    0.2964    0.8325 N   0  0  0  0  0  0  0  0  0  0  0  0
   -2.9813    0.1370   -0.1964 C   0  0  0  0  0  0  0  0  0  0  0  0
    2.9147   -0.2651   -0.0975 C   0  0  0  0  0  0  0  0  0  0  0  0
   -1.5215    0.4655   -0.4083 C   0  0  0  0  0  0  0  0  0  0  0  0
    0.6628    0.5702    0.6702 C   0  0  0  0  0  0  0  0  0  0  0  0
    1.4382   -0.5678   -0.0127 C   0  0  0  0  0  0  0  0  0  0  0  0
    3.4366    0.4233   -1.2013 C   0  0  0  0  0  0  0  0  0  0  0  0
    3.7781   -0.6440    0.9391 C   0  0  0  0  0  0  0  0  0  0  0  0
   -3.5491   -1.0120   -0.7657 C   0  0  0  0  0  0  0  0  0  0  0  0
   -3.7890    0.9739    0.5885 C   0  0  0  0  0  0  0  0  0  0  0  0
    4.7984    0.7207   -1.2715 C   0  0  0  0  0  0  0  0  0  0  0  0
    5.1399   -0.3470    0.8674 C   0  0  0  0  0  0  0  0  0  0  0  0
   -4.8983   -1.3097   -0.5627 C   0  0  0  0  0  0  0  0  0  0  0  0
   -5.1371    0.6755    0.7894 C   0  0  0  0  0  0  0  0  0  0  0  0
    5.6492    0.3340   -0.2375 C   0  0  0  0  0  0  0  0  0  0  0  0
   -5.6914   -0.4657    0.2130 C   0  0  0  0  0  0  0  0  0  0  0  0
   -2.3010   -0.0768    1.2153 N   0  0  0  0  0  0  0  0  0  0  0  0
   -1.3291    0.9035    0.6864 C   0  0  1  0  0  0  0  0  0  0  0  0
   -1.3449   -1.0233    1.4586 C   0  0  0  0  0  0  0  0  0  0  0  0
   -0.2000   -0.0184    1.2074 C   0  0  1  0  0  0  0  0  0  0  0  0
   -3.4501   -0.4193    0.3741 C   0  0  2  0  0  0  0  0  0  0  0  0
   -1.6894    0.9248   -1.1184 S   0  0  0  0  0  0  0  0  0  0  0  0
   -3.4866    0.5747   -0.8045 C   0  0  0  0  0  0  0  0  0  0  0  0
    0.8490   -0.4464    0.2464 N   0  0  0  0  0  0  0  0  0  0  0  0
   -4.7274   -0.4299    1.2047 C   0  0  0  0  0  0  0  0  0  0  0  0
    1.7868    0.4530   -0.2146 C   0  0  0  0  0  0  0  0  0  0  0  0
   -1.4316   -2.2145    1.6551 O   0  0  0  0  0  0  0  0  0  0  0  0
   -4.9248    0.1262    2.2732 O   0  0  0  0  0  0  0  0  0  0  0  0
    1.7804    1.6338    0.1282 O   0  0  0  0  0  0  0  0  0  0  0  0
    2.8150   -0.1302   -1.1657 C   0  0  0  0  0  0  0  0  0  0  0  0
   -5.7237   -1.1254    0.6141 O   0  0  0  0  0  0  0  0  0  0  0  0
   -4.1848    1.9047   -0.4903 C   0  0  0  0  0  0  0  0  0  0  0  0
   -4.0834   -0.0507   -2.0679 C   0  0  0  0  0  0  0  0  0  0  0  0
    4.1768   -0.2672   -0.5308 C   0  0  0  0  0  0  0  0  0  0  0  0
    4.5980   -1.4886    0.0117 C   0  0  0  0  0  0  0  0  0  0  0  0
    5.0325    0.8429   -0.4539 C   0  0  0  0  0  0  0  0  0  0  0  0
    5.8589   -1.5988    0.6039 C   0  0  0  0  0  0  0  0  0  0  0  0
    6.2925    0.7297    0.1368 C   0  0  0  0  0  0  0  0  0  0  0  0
    6.7065   -0.4919    0.6630 C   0  0  0  0  0  0  0  0  0  0  0  0
   -0.9107   -0.6483    1.1865 H   0  0  0  0  0  0  0  0  0  0  0  0
   -1.1203   -0.1738   -1.2028 H   0  0  0  0  0  0  0  0  0  0  0  0
   -1.4475    1.5009   -0.7637 H   0  0  0  0  0  0  0  0  0  0  0  0
    0.8110    1.5194    0.1397 H   0  0  0  0  0  0  0  0  0  0  0  0
    1.0755    0.7254    1.6750 H   0  0  0  0  0  0  0  0  0  0  0  0
    1.0570   -0.7500   -1.0249 H   0  0  0  0  0  0  0  0  0  0  0  0
    1.2915   -1.5064    0.5374 H   0  0  0  0  0  0  0  0  0  0  0  0
    2.7844    0.7345   -2.0134 H   0  0  0  0  0  0  0  0  0  0  0  0
    3.3951   -1.1718    1.8100 H   0  0  0  0  0  0  0  0  0  0  0  0
   -2.9450   -1.6829   -1.3721 H   0  0  0  0  0  0  0  0  0  0  0  0
   -3.3598    1.8603    1.0520 H   0  0  0  0  0  0  0  0  0  0  0  0
    5.1946    1.2560   -2.1301 H   0  0  0  0  0  0  0  0  0  0  0  0
    5.8032   -0.6448    1.6758 H   0  0  0  0  0  0  0  0  0  0  0  0
   -5.3294   -2.2020   -1.0091 H   0  0  0  0  0  0  0  0  0  0  0  0
   -5.7509    1.3323    1.4000 H   0  0  0  0  0  0  0  0  0  0  0  0
    6.7097    0.5656   -0.2895 H   0  0  0  0  0  0  0  0  0  0  0  0
   -6.7407   -0.6993    0.3722 H   0  0  0  0  0  0  0  0  0  0  0  0
   -1.4016    1.8763    1.1827 H   0  0  0  0  0  0  0  0  0  0  0  0
    0.2531    0.3183    2.1488 H   0  0  0  0  0  0  0  0  0  0  0  0
   -3.2986   -1.4467    0.0129 H   0  0  0  0  0  0  0  0  0  0  0  0
    0.9204   -1.4232   -0.0167 H   0  0  0  0  0  0  0  0  0  0  0  0
    2.4758   -1.1020   -1.5449 H   0  0  0  0  0  0  0  0  0  0  0  0
    2.8711    0.5249   -2.0450 H   0  0  0  0  0  0  0  0  0  0  0  0
   -6.4611   -1.0835    1.2605 H   0  0  0  0  0  0  0  0  0  0  0  0
   -5.2583    1.7584   -0.3351 H   0  0  0  0  0  0  0  0  0  0  0  0
   -4.0786    2.6186   -1.3149 H   0  0  0  0  0  0  0  0  0  0  0  0
   -3.7873    2.3767    0.4133 H   0  0  0  0  0  0  0  0  0  0  0  0
   -5.1399   -0.3005   -1.9186 H   0  0  0  0  0  0  0  0  0  0  0  0
   -3.5651   -0.9757   -2.3469 H   0  0  0  0  0  0  0  0  0  0  0  0
   -4.0338    0.6354   -2.9210 H   0  0  0  0  0  0  0  0  0  0  0  0
    3.9527   -2.3645   -0.0203 H   0  0  0  0  0  0  0  0  0  0  0  0
    4.7157    1.8070   -0.8477 H   0  0  0  0  0  0  0  0  0  0  0  0
    6.1811   -2.5493    1.0214 H   0  0  0  0  0  0  0  0  0  0  0  0
    6.9480    1.5971    0.1900 H   0  0  0  0  0  0  0  0  0  0  0  0
    7.6869   -0.5791    1.1250 H   0  0  0  0  0  0  0  0  0  0  0  0
  2  4  1  0
  3  6  1  0
  4  1  1  0
  5  1  1  0
  6  5  1  0
  7  3  2  0
  8  3  1  0
  9  2  2  0
 10  2  1  0
 11  7  1  0
 12  8  2  0
 13  9  1  0
 14 10  2  0
 15 12  1  0
 16 14  1  0
 13 16  2  0
 11 15  2  0
 18 17  1  0
 19 17  1  0
 20 19  1  0
 21 17  1  0
 18 22  1  0
 23 21  1  0
 20 24  1  0
 21 25  1  0
 26 24  1  0
 27 19  2  0
 28 25  2  0
 29 26  2  0
 30 26  1  0
 31 25  1  0
 32 23  1  0
 33 23  1  0
 34 30  1  0
 35 34  2  0
 36 34  1  0
 37 35  1  0
 38 36  2  0
 39 38  1  0
 22 23  1  0
 18 20  1  0
 37 39  2  0
  1 40  1  0
  4 41  1  0
  4 42  1  0
  5 43  1  0
  5 44  1  0
  6 45  1  0
  6 46  1  0
  7 47  1  0
  8 48  1  0
  9 49  1  0
 10 50  1  0
 11 51  1  0
 12 52  1  0
 13 53  1  0
 14 54  1  0
 15 55  1  0
 16 56  1  0
 18 57  1  1
 20 58  1  1
 21 59  1  6
 24 60  1  0
 30 61  1  0
 30 62  1  0
 31 63  1  0
 32 64  1  0
 32 65  1  0
 32 66  1  0
 33 67  1  0
 33 68  1  0
 33 69  1  0
 35 70  1  0
 36 71  1  0
 37 72  1  0
 38 73  1  0
 39 74  1  0
M  END
$$$$
