
     RDKit          3D

 74 77  0  0  0  0  0  0  0  0999 V2000
    0.1540   -0.7232    0.3460 N   0  0  0  0  0  0  0  0  0  0  0  0
    2.5835   -0.6947   -0.2238 C   0  0  0  0  0  0  0  0  0  0  0  0
   -2.6092    0.6574    0.5416 C   0  0  0  0  0  0  0  0  0  0  0  0
    1.2063   -1.2283   -0.5419 C   0  0  0  0  0  0  0  0  0  0  0  0
   -0.0911    0.7132    0.1486 C   0  0  0  0  0  0  0  0  0  0  0  0
   -1.2770    1.2104    0.9919 C   0  0  0  0  0  0  0  0  0  0  0  0
   -3.2141   -0.3949    1.2416 C   0  0  0  0  0  0  0  0  0  0  0  0
   -3.2475    1.1760   -0.5936 C   0  0  0  0  0  0  0  0  0  0  0  0
    3.3391   -0.0395   -1.2069 C   0  0  0  0  0  0  0  0  0  0  0  0
    3.1349   -0.8581    1.0553 C   0  0  0  0  0  0  0  0  0  0  0  0
   -4.4336   -0.9199    0.8134 C   0  0  0  0  0  0  0  0  0  0  0  0
   -4.4682    0.6503   -1.0193 C   0  0  0  0  0  0  0  0  0  0  0  0
    4.6142    0.4485   -0.9131 C   0  0  0  0  0  0  0  0  0  0  0  0
    4.4093   -0.3700    1.3475 C   0  0  0  0  0  0  0  0  0  0  0  0
   -5.0596   -0.3976   -0.3168 C   0  0  0  0  0  0  0  0  0  0  0  0
    5.1482    0.2839    0.3633 C   0  0  0  0  0  0  0  0  0  0  0  0
   -2.4235   -1.5233    0.4111 N   0  0  0  0  0  0  0  0  0  0  0  0
   -1.3582   -0.8932    1.2082 C   0  0  1  0  0  0  0  0  0  0  0  0
   -1.6171   -1.7323   -0.6703 C   0  0  0  0  0  0  0  0  0  0  0  0
   -0.3469   -1.4486    0.1664 C   0  0  1  0  0  0  0  0  0  0  0  0
   -3.6940   -0.8108    0.3072 C   0  0  2  0  0  0  0  0  0  0  0  0
   -1.7322    0.9079    1.1587 S   0  0  0  0  0  0  0  0  0  0  0  0
   -3.3719    0.7061    0.3113 C   0  0  0  0  0  0  0  0  0  0  0  0
    0.6339   -0.5010   -0.4250 N   0  0  0  0  0  0  0  0  0  0  0  0
   -4.6493   -1.2554    1.4201 C   0  0  0  0  0  0  0  0  0  0  0  0
    1.6711   -0.0029    0.3322 C   0  0  0  0  0  0  0  0  0  0  0  0
   -1.8771   -1.9264   -1.8343 O   0  0  0  0  0  0  0  0  0  0  0  0
   -5.8253   -0.9306    1.5200 O   0  0  0  0  0  0  0  0  0  0  0  0
    1.8140   -0.3017    1.5159 O   0  0  0  0  0  0  0  0  0  0  0  0
    2.6092    0.9327   -0.4078 C   0  0  0  0  0  0  0  0  0  0  0  0
   -4.1059   -2.0602    2.3582 O   0  0  0  0  0  0  0  0  0  0  0  0
   -3.2174    1.2367   -1.1250 C   0  0  0  0  0  0  0  0  0  0  0  0
   -4.3822    1.5976    1.0442 C   0  0  0  0  0  0  0  0  0  0  0  0
    3.9793    0.3341   -0.6099 C   0  0  0  0  0  0  0  0  0  0  0  0
    4.9370    0.4073    0.4130 C   0  0  0  0  0  0  0  0  0  0  0  0
    4.3076   -0.3257   -1.8029 C   0  0  0  0  0  0  0  0  0  0  0  0
    6.2034   -0.1533    0.2403 C   0  0  0  0  0  0  0  0  0  0  0  0
    5.5755   -0.8873   -1.9730 C   0  0  0  0  0  0  0  0  0  0  0  0
    6.5231   -0.7994   -0.9529 C   0  0  0  0  0  0  0  0  0  0  0  0
   -0.7079   -1.2262    0.1308 H   0  0  0  0  0  0  0  0  0  0  0  0
    1.2469   -2.3202   -0.4428 H   0  0  0  0  0  0  0  0  0  0  0  0
    0.9410   -1.0308   -1.5884 H   0  0  0  0  0  0  0  0  0  0  0  0
   -0.2778    0.9250   -0.9116 H   0  0  0  0  0  0  0  0  0  0  0  0
    0.7930    1.2846    0.4541 H   0  0  0  0  0  0  0  0  0  0  0  0
   -1.1094    0.9766    2.0510 H   0  0  0  0  0  0  0  0  0  0  0  0
   -1.3224    2.3057    0.9354 H   0  0  0  0  0  0  0  0  0  0  0  0
   -2.7351   -0.8126    2.1249 H   0  0  0  0  0  0  0  0  0  0  0  0
   -2.7979    1.9945   -1.1515 H   0  0  0  0  0  0  0  0  0  0  0  0
    2.9374    0.0991   -2.2078 H   0  0  0  0  0  0  0  0  0  0  0  0
    2.5598   -1.3589    1.8316 H   0  0  0  0  0  0  0  0  0  0  0  0
   -4.8952   -1.7358    1.3629 H   0  0  0  0  0  0  0  0  0  0  0  0
   -4.9600    1.0588   -1.8984 H   0  0  0  0  0  0  0  0  0  0  0  0
    5.1898    0.9603   -1.6803 H   0  0  0  0  0  0  0  0  0  0  0  0
    4.8206   -0.4961    2.3446 H   0  0  0  0  0  0  0  0  0  0  0  0
   -6.0111   -0.8041   -0.6487 H   0  0  0  0  0  0  0  0  0  0  0  0
    6.1391    0.6667    0.5918 H   0  0  0  0  0  0  0  0  0  0  0  0
   -1.2675   -1.3144    2.2136 H   0  0  0  0  0  0  0  0  0  0  0  0
    0.1489   -2.3783    0.4745 H   0  0  0  0  0  0  0  0  0  0  0  0
   -4.1703   -1.1119   -0.6343 H   0  0  0  0  0  0  0  0  0  0  0  0
    0.5779   -0.2702   -1.4102 H   0  0  0  0  0  0  0  0  0  0  0  0
    2.6827    1.8625    0.1708 H   0  0  0  0  0  0  0  0  0  0  0  0
    2.1799    1.2207   -1.3759 H   0  0  0  0  0  0  0  0  0  0  0  0
   -4.8423   -2.2517    2.9758 H   0  0  0  0  0  0  0  0  0  0  0  0
   -2.4509    0.6981   -1.6930 H   0  0  0  0  0  0  0  0  0  0  0  0
   -2.9495    2.3017   -1.1394 H   0  0  0  0  0  0  0  0  0  0  0  0
   -4.1621    1.1341   -1.6742 H   0  0  0  0  0  0  0  0  0  0  0  0
   -4.0999    2.6567    0.9876 H   0  0  0  0  0  0  0  0  0  0  0  0
   -5.3769    1.5118    0.5910 H   0  0  0  0  0  0  0  0  0  0  0  0
   -4.4698    1.3443    2.1070 H   0  0  0  0  0  0  0  0  0  0  0  0
    4.6955    0.8951    1.3567 H   0  0  0  0  0  0  0  0  0  0  0  0
    3.5826   -0.4097   -2.6096 H   0  0  0  0  0  0  0  0  0  0  0  0
    6.9372   -0.0915    1.0410 H   0  0  0  0  0  0  0  0  0  0  0  0
    5.8230   -1.3963   -2.9029 H   0  0  0  0  0  0  0  0  0  0  0  0
    7.5084   -1.2390   -1.0847 H   0  0  0  0  0  0  0  0  0  0  0  0
  2  4  1  0
  3  6  1  0
  4  1  1  0
  5  1  1  0
  6  5  1  0
  7  3  2  0
  8  3  1  0
  9  2  2  0
 10  2  1  0
 11  7  1  0
 12  8  2  0
 13  9  1  0
 14 10  2  0
 15 12  1  0
 16 14  1  0
 13 16  2  0
 11 15  2  0
 18 17  1  0
 19 17  1  0
 20 19  1  0
 21 17  1  0
 18 22  1  0
 23 21  1  0
 20 24  1  0
 21 25  1  0
 26 24  1  0
 27 19  2  0
 28 25  2  0
 29 26  2  0
 30 26  1  0
 31 25  1  0
 32 23  1  0
 33 23  1  0
 34 30  1  0
 35 34  2  0
 36 34  1  0
 37 35  1  0
 38 36  2  0
 39 38  1  0
 22 23  1  0
 18 20  1  0
 37 39  2  0
  1 40  1  0
  4 41  1  0
  4 42  1  0
  5 43  1  0
  5 44  1  0
  6 45  1  0
  6 46  1  0
  7 47  1  0
  8 48  1  0
  9 49  1  0
 10 50  1  0
 11 51  1  0
 12 52  1  0
 13 53  1  0
 14 54  1  0
 15 55  1  0
 16 56  1  0
 18 57  1  1
 20 58  1  1
 21 59  1  6
 24 60  1  0
 30 61  1  0
 30 62  1  0
 31 63  1  0
 32 64  1  0
 32 65  1  0
 32 66  1  0
 33 67  1  0
 33 68  1  0
 33 69  1  0
 35 70  1  0
 36 71  1  0
 37 72  1  0
 38 73  1  0
 39 74  1  0
M  END
$$$$
