
     RDKit          3D

 70 72  0  0  0  0  0  0  0  0999 V2000
   -0.4745    1.2206    0.4084 C   0  0  0  0  0  0  0  0  0  0  0  0
    0.1917    0.2768   -0.3121 C   0  0  0  0  0  0  0  0  0  0  0  0
   -1.6688    0.9477    1.0299 N   0  0  0  0  0  0  0  0  0  0  0  0
   -1.4892   -1.2856    0.1828 N   0  0  0  0  0  0  0  0  0  0  0  0
   -2.2111   -0.3347    0.9345 C   0  0  0  0  0  0  0  0  0  0  0  0
   -0.2813   -1.0525   -0.4792 C   0  0  0  0  0  0  0  0  0  0  0  0
    0.1851    2.4123    0.4181 N   0  0  0  0  0  0  0  0  0  0  0  0
    1.3229    0.9025   -0.7560 N   0  0  0  0  0  0  0  0  0  0  0  0
    1.2757    2.1909   -0.2884 C   0  0  0  0  0  0  0  0  0  0  0  0
    2.3674    0.3395   -1.5913 C   0  0  0  0  0  0  0  0  0  0  0  0
   -3.2784   -0.6344    1.4785 O   0  0  0  0  0  0  0  0  0  0  0  0
    0.3217   -1.8865   -1.1481 O   0  0  0  0  0  0  0  0  0  0  0  0
    3.2912   -0.5673   -0.8244 C   0  0  0  0  0  0  0  0  0  0  0  0
    3.3128   -0.7717    0.3775 O   0  0  0  0  0  0  0  0  0  0  0  0
   -2.3440    1.9810    1.7937 C   0  0  0  0  0  0  0  0  0  0  0  0
   -2.0696   -2.6113    0.0995 C   0  0  0  0  0  0  0  0  0  0  0  0
    4.1957   -1.1669   -1.6293 O   0  0  0  0  0  0  0  0  0  0  0  0
   -0.6646    1.1741    0.2329 C   0  0  0  0  0  0  0  0  0  0  0  0
    0.2533    0.1734    0.3310 C   0  0  0  0  0  0  0  0  0  0  0  0
   -1.9667    0.9296   -0.1300 N   0  0  0  0  0  0  0  0  0  0  0  0
   -1.3767   -1.3839   -0.3239 N   0  0  0  0  0  0  0  0  0  0  0  0
   -2.3604   -0.3771   -0.4216 C   0  0  0  0  0  0  0  0  0  0  0  0
   -0.0495   -1.1894    0.0666 C   0  0  0  0  0  0  0  0  0  0  0  0
   -0.1281    2.3880    0.5394 N   0  0  0  0  0  0  0  0  0  0  0  0
    1.4150    0.7923    0.6988 N   0  0  0  0  0  0  0  0  0  0  0  0
    1.1356    2.1302    0.8108 C   0  0  0  0  0  0  0  0  0  0  0  0
    2.6976    0.1677    0.9643 C   0  0  0  0  0  0  0  0  0  0  0  0
   -3.5191   -0.6524   -0.7477 O   0  0  0  0  0  0  0  0  0  0  0  0
    0.7820   -2.0841    0.1882 O   0  0  0  0  0  0  0  0  0  0  0  0
    3.4275   -0.2084   -0.2960 C   0  0  0  0  0  0  0  0  0  0  0  0
    3.1003    0.0176   -1.4490 O   0  0  0  0  0  0  0  0  0  0  0  0
   -2.9156    2.0247   -0.2160 C   0  0  0  0  0  0  0  0  0  0  0  0
   -1.8068   -2.7331   -0.6340 C   0  0  0  0  0  0  0  0  0  0  0  0
    4.5922   -0.8418   -0.0348 O   0  0  0  0  0  0  0  0  0  0  0  0
    0.0430   -1.0987   -0.5800 N   0  0  0  0  0  0  0  0  0  0  0  0
   -0.0190    1.2627    1.2168 N   0  0  0  0  0  0  0  0  0  0  0  0
   -1.2143   -0.5533   -0.0496 C   0  0  0  0  0  0  0  0  0  0  0  0
   -1.1220    0.9504    0.2889 C   0  0  0  0  0  0  0  0  0  0  0  0
    1.1638   -0.7643    0.3097 C   0  0  0  0  0  0  0  0  0  0  0  0
    1.2367    0.7410    0.6457 C   0  0  0  0  0  0  0  0  0  0  0  0
    2.0511    2.9202   -0.4887 H   0  0  0  0  0  0  0  0  0  0  0  0
    1.8836   -0.2102   -2.4041 H   0  0  0  0  0  0  0  0  0  0  0  0
    2.9470    1.1684   -2.0104 H   0  0  0  0  0  0  0  0  0  0  0  0
   -2.5509    2.8332    1.1385 H   0  0  0  0  0  0  0  0  0  0  0  0
   -1.6941    2.2990    2.6150 H   0  0  0  0  0  0  0  0  0  0  0  0
   -3.2887    1.6265    2.2140 H   0  0  0  0  0  0  0  0  0  0  0  0
   -2.1696   -3.0192    1.1107 H   0  0  0  0  0  0  0  0  0  0  0  0
   -3.0685   -2.5360   -0.3432 H   0  0  0  0  0  0  0  0  0  0  0  0
   -1.4668   -3.2973   -0.5012 H   0  0  0  0  0  0  0  0  0  0  0  0
    4.7095   -1.7449   -1.0247 H   0  0  0  0  0  0  0  0  0  0  0  0
    1.8788    2.8663    1.0917 H   0  0  0  0  0  0  0  0  0  0  0  0
    2.5170   -0.7193    1.5780 H   0  0  0  0  0  0  0  0  0  0  0  0
    3.3065    0.8802    1.5302 H   0  0  0  0  0  0  0  0  0  0  0  0
   -2.5609    2.7471   -0.9579 H   0  0  0  0  0  0  0  0  0  0  0  0
   -2.9909    2.5102    0.7623 H   0  0  0  0  0  0  0  0  0  0  0  0
   -3.9100    1.6806   -0.5119 H   0  0  0  0  0  0  0  0  0  0  0  0
   -0.9878   -3.4551   -0.5904 H   0  0  0  0  0  0  0  0  0  0  0  0
   -2.5816   -3.0298    0.0808 H   0  0  0  0  0  0  0  0  0  0  0  0
   -2.2396   -2.7496   -1.6396 H   0  0  0  0  0  0  0  0  0  0  0  0
    4.9525   -1.0579   -0.9220 H   0  0  0  0  0  0  0  0  0  0  0  0
   -0.0329   -2.1107   -0.6697 H   0  0  0  0  0  0  0  0  0  0  0  0
   -0.1953    0.7690    2.0912 H   0  0  0  0  0  0  0  0  0  0  0  0
   -2.0055   -0.7059   -0.7916 H   0  0  0  0  0  0  0  0  0  0  0  0
   -1.5030   -1.1134    0.8487 H   0  0  0  0  0  0  0  0  0  0  0  0
   -0.9976    1.5346   -0.6314 H   0  0  0  0  0  0  0  0  0  0  0  0
   -2.0641    1.2764    0.7435 H   0  0  0  0  0  0  0  0  0  0  0  0
    1.0751   -1.3425    1.2380 H   0  0  0  0  0  0  0  0  0  0  0  0
    2.0989   -1.0701   -0.1718 H   0  0  0  0  0  0  0  0  0  0  0  0
    1.4907    1.3134   -0.2550 H   0  0  0  0  0  0  0  0  0  0  0  0
    2.0454    0.9115    1.3650 H   0  0  0  0  0  0  0  0  0  0  0  0
  2  1  2  0
  3  1  1  0
  4  5  1  0
  5  3  1  0
  6  2  1  0
  7  1  1  0
  8  2  1  0
  9  7  2  0
 10  8  1  0
 11  5  2  0
 12  6  2  0
 13 10  1  0
 14 13  2  0
 15  3  1  0
 16  4  1  0
 17 13  1  0
  6  4  1  0
  8  9  1  0
 19 18  2  0
 20 18  1  0
 21 22  1  0
 22 20  1  0
 23 19  1  0
 24 18  1  0
 25 19  1  0
 26 24  2  0
 27 25  1  0
 28 22  2  0
 29 23  2  0
 30 27  1  0
 31 30  2  0
 32 20  1  0
 33 21  1  0
 34 30  1  0
 23 21  1  0
 25 26  1  0
 36 40  1  0
 37 35  1  0
 38 37  1  0
 39 35  1  0
 40 39  1  0
 38 36  1  0
  9 41  1  0
 10 42  1  0
 10 43  1  0
 15 44  1  0
 15 45  1  0
 15 46  1  0
 16 47  1  0
 16 48  1  0
 16 49  1  0
 17 50  1  0
 26 51  1  0
 27 52  1  0
 27 53  1  0
 32 54  1  0
 32 55  1  0
 32 56  1  0
 33 57  1  0
 33 58  1  0
 33 59  1  0
 34 60  1  0
 35 61  1  0
 36 62  1  0
 37 63  1  0
 37 64  1  0
 38 65  1  0
 38 66  1  0
 39 67  1  0
 39 68  1  0
 40 69  1  0
 40 70  1  0
M  END
$$$$
