
     RDKit          3D

 70 72  0  0  0  0  0  0  0  0999 V2000
   -0.3184    1.2437    0.6837 C   0  0  0  0  0  0  0  0  0  0  0  0
    0.2427    0.0071    0.5876 C   0  0  0  0  0  0  0  0  0  0  0  0
   -1.5813    1.5050    0.2098 N   0  0  0  0  0  0  0  0  0  0  0  0
   -1.6866   -0.7818   -0.4929 N   0  0  0  0  0  0  0  0  0  0  0  0
   -2.3030    0.4843   -0.4098 C   0  0  0  0  0  0  0  0  0  0  0  0
   -0.4145   -1.1011   -0.0121 C   0  0  0  0  0  0  0  0  0  0  0  0
    0.5117    2.1327    1.2953 N   0  0  0  0  0  0  0  0  0  0  0  0
    1.4772    0.1322    1.1606 N   0  0  0  0  0  0  0  0  0  0  0  0
    1.5980    1.4369    1.5656 C   0  0  0  0  0  0  0  0  0  0  0  0
    2.4619   -0.9134    1.3638 C   0  0  0  0  0  0  0  0  0  0  0  0
   -3.4352    0.6695   -0.8667 O   0  0  0  0  0  0  0  0  0  0  0  0
    0.1002   -2.2135   -0.0809 O   0  0  0  0  0  0  0  0  0  0  0  0
    3.2709   -1.1939    0.1279 C   0  0  0  0  0  0  0  0  0  0  0  0
    3.2493   -0.5990   -0.9361 O   0  0  0  0  0  0  0  0  0  0  0  0
   -2.1417    2.8381    0.3288 C   0  0  0  0  0  0  0  0  0  0  0  0
   -2.4544   -1.8273   -1.1400 C   0  0  0  0  0  0  0  0  0  0  0  0
    4.1327   -2.2172    0.3117 O   0  0  0  0  0  0  0  0  0  0  0  0
   -0.5268   -1.2649   -0.0071 C   0  0  0  0  0  0  0  0  0  0  0  0
    0.3243   -0.2303   -0.2488 C   0  0  0  0  0  0  0  0  0  0  0  0
   -1.8852   -1.0796    0.0778 N   0  0  0  0  0  0  0  0  0  0  0  0
   -1.5014    1.2409   -0.3757 N   0  0  0  0  0  0  0  0  0  0  0  0
   -2.4141    0.1978   -0.1143 C   0  0  0  0  0  0  0  0  0  0  0  0
   -0.1121    1.1084   -0.4405 C   0  0  0  0  0  0  0  0  0  0  0  0
    0.1367   -2.4459    0.1341 N   0  0  0  0  0  0  0  0  0  0  0  0
    1.5728   -0.7865   -0.2345 N   0  0  0  0  0  0  0  0  0  0  0  0
    1.4086   -2.1276   -0.0005 C   0  0  0  0  0  0  0  0  0  0  0  0
    2.8374   -0.1110   -0.4577 C   0  0  0  0  0  0  0  0  0  0  0  0
   -3.6287    0.4139   -0.0631 O   0  0  0  0  0  0  0  0  0  0  0  0
    0.6688    2.0322   -0.6486 O   0  0  0  0  0  0  0  0  0  0  0  0
    3.2910    0.6717    0.7445 C   0  0  0  0  0  0  0  0  0  0  0  0
    2.8043    0.6763    1.8625 O   0  0  0  0  0  0  0  0  0  0  0  0
   -2.7644   -2.2072    0.3246 C   0  0  0  0  0  0  0  0  0  0  0  0
   -2.0674    2.5627   -0.5588 C   0  0  0  0  0  0  0  0  0  0  0  0
    4.3964    1.4037    0.4849 O   0  0  0  0  0  0  0  0  0  0  0  0
    0.1961   -1.2421   -0.7269 N   0  0  0  0  0  0  0  0  0  0  0  0
   -0.2872    1.4195   -0.1070 N   0  0  0  0  0  0  0  0  0  0  0  0
   -0.9559   -1.0219    0.1643 C   0  0  0  0  0  0  0  0  0  0  0  0
   -1.3482    0.4714    0.2887 C   0  0  0  0  0  0  0  0  0  0  0  0
    1.3564   -0.4883   -0.2105 C   0  0  0  0  0  0  0  0  0  0  0  0
    1.0132    0.9099    0.3612 C   0  0  0  0  0  0  0  0  0  0  0  0
    2.4857    1.8247    2.0505 H   0  0  0  0  0  0  0  0  0  0  0  0
    1.9348   -1.8153    1.6861 H   0  0  0  0  0  0  0  0  0  0  0  0
    3.1348   -0.5868    2.1634 H   0  0  0  0  0  0  0  0  0  0  0  0
   -3.1816    2.8738   -0.0085 H   0  0  0  0  0  0  0  0  0  0  0  0
   -2.1059    3.1526    1.3764 H   0  0  0  0  0  0  0  0  0  0  0  0
   -1.5499    3.5270   -0.2824 H   0  0  0  0  0  0  0  0  0  0  0  0
   -3.4084   -1.9459   -0.6162 H   0  0  0  0  0  0  0  0  0  0  0  0
   -2.6625   -1.5265   -2.1721 H   0  0  0  0  0  0  0  0  0  0  0  0
   -1.9334   -2.7881   -1.1488 H   0  0  0  0  0  0  0  0  0  0  0  0
    4.5771   -2.3180   -0.5578 H   0  0  0  0  0  0  0  0  0  0  0  0
    2.2377   -2.8215    0.0620 H   0  0  0  0  0  0  0  0  0  0  0  0
    3.5889   -0.8715   -0.6928 H   0  0  0  0  0  0  0  0  0  0  0  0
    2.7133    0.5524   -1.3188 H   0  0  0  0  0  0  0  0  0  0  0  0
   -3.7671   -1.8796    0.6105 H   0  0  0  0  0  0  0  0  0  0  0  0
   -2.8373   -2.8006   -0.5913 H   0  0  0  0  0  0  0  0  0  0  0  0
   -2.3593   -2.8241    1.1319 H   0  0  0  0  0  0  0  0  0  0  0  0
   -2.4559    2.9095    0.4035 H   0  0  0  0  0  0  0  0  0  0  0  0
   -2.8967    2.5135   -1.2711 H   0  0  0  0  0  0  0  0  0  0  0  0
   -1.3328    3.2828   -0.9264 H   0  0  0  0  0  0  0  0  0  0  0  0
    4.5688    1.8844    1.3228 H   0  0  0  0  0  0  0  0  0  0  0  0
   -0.0467   -0.8522   -1.6374 H   0  0  0  0  0  0  0  0  0  0  0  0
   -0.2550    1.4409   -1.1258 H   0  0  0  0  0  0  0  0  0  0  0  0
   -1.8117   -1.5937   -0.2107 H   0  0  0  0  0  0  0  0  0  0  0  0
   -0.7188   -1.4257    1.1566 H   0  0  0  0  0  0  0  0  0  0  0  0
   -1.6515    0.6810    1.3211 H   0  0  0  0  0  0  0  0  0  0  0  0
   -2.2227    0.6703   -0.3418 H   0  0  0  0  0  0  0  0  0  0  0  0
    1.8566   -1.0819    0.5637 H   0  0  0  0  0  0  0  0  0  0  0  0
    2.0729   -0.3782   -1.0331 H   0  0  0  0  0  0  0  0  0  0  0  0
    1.0051    0.8693    1.4578 H   0  0  0  0  0  0  0  0  0  0  0  0
    1.7973    1.6216    0.0799 H   0  0  0  0  0  0  0  0  0  0  0  0
  2  1  2  0
  3  1  1  0
  4  5  1  0
  5  3  1  0
  6  2  1  0
  7  1  1  0
  8  2  1  0
  9  7  2  0
 10  8  1  0
 11  5  2  0
 12  6  2  0
 13 10  1  0
 14 13  2  0
 15  3  1  0
 16  4  1  0
 17 13  1  0
  6  4  1  0
  8  9  1  0
 19 18  2  0
 20 18  1  0
 21 22  1  0
 22 20  1  0
 23 19  1  0
 24 18  1  0
 25 19  1  0
 26 24  2  0
 27 25  1  0
 28 22  2  0
 29 23  2  0
 30 27  1  0
 31 30  2  0
 32 20  1  0
 33 21  1  0
 34 30  1  0
 23 21  1  0
 25 26  1  0
 36 40  1  0
 37 35  1  0
 38 37  1  0
 39 35  1  0
 40 39  1  0
 38 36  1  0
  9 41  1  0
 10 42  1  0
 10 43  1  0
 15 44  1  0
 15 45  1  0
 15 46  1  0
 16 47  1  0
 16 48  1  0
 16 49  1  0
 17 50  1  0
 26 51  1  0
 27 52  1  0
 27 53  1  0
 32 54  1  0
 32 55  1  0
 32 56  1  0
 33 57  1  0
 33 58  1  0
 33 59  1  0
 34 60  1  0
 35 61  1  0
 36 62  1  0
 37 63  1  0
 37 64  1  0
 38 65  1  0
 38 66  1  0
 39 67  1  0
 39 68  1  0
 40 69  1  0
 40 70  1  0
M  END
$$$$
