
     RDKit          3D

 70 72  0  0  0  0  0  0  0  0999 V2000
   -0.3586    1.2647   -0.1717 C   0  0  0  0  0  0  0  0  0  0  0  0
    0.3657    0.1315   -0.3840 C   0  0  0  0  0  0  0  0  0  0  0  0
   -1.7144    1.2273    0.0472 N   0  0  0  0  0  0  0  0  0  0  0  0
   -1.5817   -1.1568   -0.1401 N   0  0  0  0  0  0  0  0  0  0  0  0
   -2.3723   -0.0037    0.0485 C   0  0  0  0  0  0  0  0  0  0  0  0
   -0.2068   -1.1685   -0.3867 C   0  0  0  0  0  0  0  0  0  0  0  0
    0.4196    2.3813   -0.2153 N   0  0  0  0  0  0  0  0  0  0  0  0
    1.6519    0.5597   -0.5600 N   0  0  0  0  0  0  0  0  0  0  0  0
    1.6351    1.9267   -0.4458 C   0  0  0  0  0  0  0  0  0  0  0  0
    2.8160   -0.2507   -0.8742 C   0  0  0  0  0  0  0  0  0  0  0  0
   -3.5942   -0.0902    0.2034 O   0  0  0  0  0  0  0  0  0  0  0  0
    0.4571   -2.1798   -0.5924 O   0  0  0  0  0  0  0  0  0  0  0  0
    3.3910   -1.0037    0.2939 C   0  0  0  0  0  0  0  0  0  0  0  0
    4.2854   -1.8340    0.2132 O   0  0  0  0  0  0  0  0  0  0  0  0
   -2.4557    2.4606    0.2380 C   0  0  0  0  0  0  0  0  0  0  0  0
   -2.2813   -2.4265   -0.1249 C   0  0  0  0  0  0  0  0  0  0  0  0
    2.8990   -0.6728    1.5016 O   0  0  0  0  0  0  0  0  0  0  0  0
   -0.3896   -0.4768    1.1351 C   0  0  0  0  0  0  0  0  0  0  0  0
    0.2159   -0.3976   -0.0816 C   0  0  0  0  0  0  0  0  0  0  0  0
   -1.6116    0.1034    1.3747 N   0  0  0  0  0  0  0  0  0  0  0  0
   -1.5683    0.9005   -0.8836 N   0  0  0  0  0  0  0  0  0  0  0  0
   -2.2390    0.8206    0.3548 C   0  0  0  0  0  0  0  0  0  0  0  0
   -0.3487    0.2912   -1.1886 C   0  0  0  0  0  0  0  0  0  0  0  0
    0.3530   -1.1894    2.0271 N   0  0  0  0  0  0  0  0  0  0  0  0
    1.3904   -1.0818    0.0614 N   0  0  0  0  0  0  0  0  0  0  0  0
    1.4309   -1.5387    1.3536 C   0  0  0  0  0  0  0  0  0  0  0  0
    2.3938   -1.3252   -0.9579 C   0  0  0  0  0  0  0  0  0  0  0  0
   -3.3367    1.3619    0.5183 O   0  0  0  0  0  0  0  0  0  0  0  0
    0.1919    0.3233   -2.2903 O   0  0  0  0  0  0  0  0  0  0  0  0
    3.2576   -0.1209   -1.2134 C   0  0  0  0  0  0  0  0  0  0  0  0
    3.2914    0.9239   -0.5853 O   0  0  0  0  0  0  0  0  0  0  0  0
   -2.2229    0.0003    2.6867 C   0  0  0  0  0  0  0  0  0  0  0  0
   -2.2381    1.6437   -1.9326 C   0  0  0  0  0  0  0  0  0  0  0  0
    4.0957   -0.3105   -2.2555 O   0  0  0  0  0  0  0  0  0  0  0  0
   -0.3376    1.3165    0.6011 N   0  0  0  0  0  0  0  0  0  0  0  0
    0.3377   -1.3163   -0.6009 N   0  0  0  0  0  0  0  0  0  0  0  0
   -1.3713    0.3870    0.1123 C   0  0  0  0  0  0  0  0  0  0  0  0
   -0.9163   -1.0881    0.1387 C   0  0  0  0  0  0  0  0  0  0  0  0
    0.9160    1.0881   -0.1391 C   0  0  0  0  0  0  0  0  0  0  0  0
    1.3713   -0.3869   -0.1119 C   0  0  0  0  0  0  0  0  0  0  0  0
    2.5245    2.5374   -0.5415 H   0  0  0  0  0  0  0  0  0  0  0  0
    2.5216   -0.9567   -1.6562 H   0  0  0  0  0  0  0  0  0  0  0  0
    3.5881    0.4176   -1.2691 H   0  0  0  0  0  0  0  0  0  0  0  0
   -1.9918    3.0417    1.0408 H   0  0  0  0  0  0  0  0  0  0  0  0
   -2.4311    3.0345   -0.6933 H   0  0  0  0  0  0  0  0  0  0  0  0
   -3.4988    2.2709    0.5041 H   0  0  0  0  0  0  0  0  0  0  0  0
   -2.9249   -2.4803   -1.0091 H   0  0  0  0  0  0  0  0  0  0  0  0
   -1.5977   -3.2788   -0.1287 H   0  0  0  0  0  0  0  0  0  0  0  0
   -2.9127   -2.4858    0.7673 H   0  0  0  0  0  0  0  0  0  0  0  0
    3.3669   -1.2657    2.1273 H   0  0  0  0  0  0  0  0  0  0  0  0
    2.2571   -2.1166    1.7493 H   0  0  0  0  0  0  0  0  0  0  0  0
    3.0255   -2.1526   -0.6187 H   0  0  0  0  0  0  0  0  0  0  0  0
    1.8735   -1.6215   -1.8733 H   0  0  0  0  0  0  0  0  0  0  0  0
   -1.6269    0.5782    3.3994 H   0  0  0  0  0  0  0  0  0  0  0  0
   -2.2487   -1.0494    2.9954 H   0  0  0  0  0  0  0  0  0  0  0  0
   -3.2446    0.3876    2.6896 H   0  0  0  0  0  0  0  0  0  0  0  0
   -3.1327    1.0894   -2.2341 H   0  0  0  0  0  0  0  0  0  0  0  0
   -2.5478    2.6215   -1.5496 H   0  0  0  0  0  0  0  0  0  0  0  0
   -1.6008    1.7953   -2.8078 H   0  0  0  0  0  0  0  0  0  0  0  0
    4.5796    0.5402   -2.3339 H   0  0  0  0  0  0  0  0  0  0  0  0
   -0.1619    1.0969    1.5825 H   0  0  0  0  0  0  0  0  0  0  0  0
    0.1631   -1.0968   -1.5826 H   0  0  0  0  0  0  0  0  0  0  0  0
   -1.6559    0.6703   -0.9086 H   0  0  0  0  0  0  0  0  0  0  0  0
   -2.2674    0.5011    0.7321 H   0  0  0  0  0  0  0  0  0  0  0  0
   -1.7005   -1.7173   -0.2968 H   0  0  0  0  0  0  0  0  0  0  0  0
   -0.7872   -1.4192    1.1766 H   0  0  0  0  0  0  0  0  0  0  0  0
    0.7863    1.4188   -1.1771 H   0  0  0  0  0  0  0  0  0  0  0  0
    1.7002    1.7171    0.2960 H   0  0  0  0  0  0  0  0  0  0  0  0
    1.6558   -0.6704    0.9091 H   0  0  0  0  0  0  0  0  0  0  0  0
    2.2677   -0.5007   -0.7315 H   0  0  0  0  0  0  0  0  0  0  0  0
  2  1  2  0
  3  1  1  0
  4  5  1  0
  5  3  1  0
  6  2  1  0
  7  1  1  0
  8  2  1  0
  9  7  2  0
 10  8  1  0
 11  5  2  0
 12  6  2  0
 13 10  1  0
 14 13  2  0
 15  3  1  0
 16  4  1  0
 17 13  1  0
  6  4  1  0
  8  9  1  0
 19 18  2  0
 20 18  1  0
 21 22  1  0
 22 20  1  0
 23 19  1  0
 24 18  1  0
 25 19  1  0
 26 24  2  0
 27 25  1  0
 28 22  2  0
 29 23  2  0
 30 27  1  0
 31 30  2  0
 32 20  1  0
 33 21  1  0
 34 30  1  0
 23 21  1  0
 25 26  1  0
 36 40  1  0
 37 35  1  0
 38 37  1  0
 39 35  1  0
 40 39  1  0
 38 36  1  0
  9 41  1  0
 10 42  1  0
 10 43  1  0
 15 44  1  0
 15 45  1  0
 15 46  1  0
 16 47  1  0
 16 48  1  0
 16 49  1  0
 17 50  1  0
 26 51  1  0
 27 52  1  0
 27 53  1  0
 32 54  1  0
 32 55  1  0
 32 56  1  0
 33 57  1  0
 33 58  1  0
 33 59  1  0
 34 60  1  0
 35 61  1  0
 36 62  1  0
 37 63  1  0
 37 64  1  0
 38 65  1  0
 38 66  1  0
 39 67  1  0
 39 68  1  0
 40 69  1  0
 40 70  1  0
M  END
$$$$
