
     RDKit          3D

 70 72  0  0  0  0  0  0  0  0999 V2000
   -0.5403    1.1999   -0.0302 C   0  0  0  0  0  0  0  0  0  0  0  0
    0.3317    0.1997    0.2747 C   0  0  0  0  0  0  0  0  0  0  0  0
   -1.8700    0.9532   -0.2714 N   0  0  0  0  0  0  0  0  0  0  0  0
   -1.4126   -1.3644    0.1235 N   0  0  0  0  0  0  0  0  0  0  0  0
   -2.3431   -0.3584   -0.2120 C   0  0  0  0  0  0  0  0  0  0  0  0
   -0.0506   -1.1656    0.3622 C   0  0  0  0  0  0  0  0  0  0  0  0
    0.0714    2.4162   -0.0614 N   0  0  0  0  0  0  0  0  0  0  0  0
    1.5407    0.8180    0.4316 N   0  0  0  0  0  0  0  0  0  0  0  0
    1.3332    2.1572    0.2179 C   0  0  0  0  0  0  0  0  0  0  0  0
    2.8024    0.2052    0.8093 C   0  0  0  0  0  0  0  0  0  0  0  0
   -3.5234   -0.6376   -0.4427 O   0  0  0  0  0  0  0  0  0  0  0  0
    0.7512   -2.0584    0.6192 O   0  0  0  0  0  0  0  0  0  0  0  0
    3.5128   -0.5073   -0.3090 C   0  0  0  0  0  0  0  0  0  0  0  0
    4.5295   -1.1732   -0.1731 O   0  0  0  0  0  0  0  0  0  0  0  0
   -2.7630    2.0463   -0.6095 C   0  0  0  0  0  0  0  0  0  0  0  0
   -1.9245   -2.7197    0.1797 C   0  0  0  0  0  0  0  0  0  0  0  0
    2.9925   -0.3327   -1.5376 O   0  0  0  0  0  0  0  0  0  0  0  0
   -0.4443    1.1081   -0.5545 C   0  0  0  0  0  0  0  0  0  0  0  0
    0.3206   -0.0056   -0.3865 C   0  0  0  0  0  0  0  0  0  0  0  0
   -1.7662    1.1419   -0.1821 N   0  0  0  0  0  0  0  0  0  0  0  0
   -1.5203   -1.1274    0.5435 N   0  0  0  0  0  0  0  0  0  0  0  0
   -2.3424    0.0096    0.3953 C   0  0  0  0  0  0  0  0  0  0  0  0
   -0.1720   -1.2084    0.1870 C   0  0  0  0  0  0  0  0  0  0  0  0
    0.2601    2.1292   -1.1161 N   0  0  0  0  0  0  0  0  0  0  0  0
    1.5574    0.3389   -0.8557 N   0  0  0  0  0  0  0  0  0  0  0  0
    1.4719    1.6390   -1.2853 C   0  0  0  0  0  0  0  0  0  0  0  0
    2.7337   -0.5084   -0.9468 C   0  0  0  0  0  0  0  0  0  0  0  0
   -3.5203   -0.0070    0.7650 O   0  0  0  0  0  0  0  0  0  0  0  0
    0.5337   -2.2001    0.3436 O   0  0  0  0  0  0  0  0  0  0  0  0
    3.4746   -0.6947    0.3492 C   0  0  0  0  0  0  0  0  0  0  0  0
    4.4341   -1.4380    0.4995 O   0  0  0  0  0  0  0  0  0  0  0  0
   -2.5432    2.3540   -0.3664 C   0  0  0  0  0  0  0  0  0  0  0  0
   -2.1391   -2.2922    1.1452 C   0  0  0  0  0  0  0  0  0  0  0  0
    3.0533    0.0625    1.3785 O   0  0  0  0  0  0  0  0  0  0  0  0
    1.5219    0.1073    0.1366 N   0  0  0  0  0  0  0  0  0  0  0  0
   -1.4336   -0.1323    0.0154 N   0  0  0  0  0  0  0  0  0  0  0  0
    0.8352   -1.1968    0.1906 C   0  0  0  0  0  0  0  0  0  0  0  0
   -0.5432   -1.1789   -0.5053 C   0  0  0  0  0  0  0  0  0  0  0  0
    0.6252    1.1338    0.6998 C   0  0  0  0  0  0  0  0  0  0  0  0
   -0.7546    1.1708    0.0075 C   0  0  0  0  0  0  0  0  0  0  0  0
    2.1253    2.8932    0.2790 H   0  0  0  0  0  0  0  0  0  0  0  0
    3.4561    0.9996    1.1842 H   0  0  0  0  0  0  0  0  0  0  0  0
    2.5963   -0.4992    1.6206 H   0  0  0  0  0  0  0  0  0  0  0  0
   -2.7319    2.7956    0.1879 H   0  0  0  0  0  0  0  0  0  0  0  0
   -2.4323    2.4976   -1.5503 H   0  0  0  0  0  0  0  0  0  0  0  0
   -3.7954    1.7073   -0.7282 H   0  0  0  0  0  0  0  0  0  0  0  0
   -1.1789   -3.4343    0.5374 H   0  0  0  0  0  0  0  0  0  0  0  0
   -2.7928   -2.7519    0.8461 H   0  0  0  0  0  0  0  0  0  0  0  0
   -2.2476   -3.0141   -0.8244 H   0  0  0  0  0  0  0  0  0  0  0  0
    3.5632   -0.8723   -2.1256 H   0  0  0  0  0  0  0  0  0  0  0  0
    2.3112    2.1754   -1.7105 H   0  0  0  0  0  0  0  0  0  0  0  0
    2.4099   -1.4816   -1.3273 H   0  0  0  0  0  0  0  0  0  0  0  0
    3.4147   -0.0504   -1.6718 H   0  0  0  0  0  0  0  0  0  0  0  0
   -2.5100    2.6460   -1.4207 H   0  0  0  0  0  0  0  0  0  0  0  0
   -2.1112    3.1497    0.2487 H   0  0  0  0  0  0  0  0  0  0  0  0
   -3.5880    2.2162   -0.0764 H   0  0  0  0  0  0  0  0  0  0  0  0
   -1.4675   -3.1537    1.1793 H   0  0  0  0  0  0  0  0  0  0  0  0
   -3.0318   -2.5619    0.5712 H   0  0  0  0  0  0  0  0  0  0  0  0
   -2.4469   -2.0403    2.1653 H   0  0  0  0  0  0  0  0  0  0  0  0
    3.6280   -0.2008    2.1289 H   0  0  0  0  0  0  0  0  0  0  0  0
    1.6842    0.3361   -0.8436 H   0  0  0  0  0  0  0  0  0  0  0  0
   -2.2764   -0.0839   -0.5547 H   0  0  0  0  0  0  0  0  0  0  0  0
    0.7218   -1.5036    1.2378 H   0  0  0  0  0  0  0  0  0  0  0  0
    1.4722   -1.9476   -0.2900 H   0  0  0  0  0  0  0  0  0  0  0  0
   -1.0264   -2.1524   -0.3691 H   0  0  0  0  0  0  0  0  0  0  0  0
   -0.4063   -1.0352   -1.5845 H   0  0  0  0  0  0  0  0  0  0  0  0
    1.1065    2.1128    0.5976 H   0  0  0  0  0  0  0  0  0  0  0  0
    0.4999    0.9551    1.7750 H   0  0  0  0  0  0  0  0  0  0  0  0
   -0.6350    1.5118   -1.0287 H   0  0  0  0  0  0  0  0  0  0  0  0
   -1.3913    1.9031    0.5156 H   0  0  0  0  0  0  0  0  0  0  0  0
  2  1  2  0
  3  1  1  0
  4  5  1  0
  5  3  1  0
  6  2  1  0
  7  1  1  0
  8  2  1  0
  9  7  2  0
 10  8  1  0
 11  5  2  0
 12  6  2  0
 13 10  1  0
 14 13  2  0
 15  3  1  0
 16  4  1  0
 17 13  1  0
  6  4  1  0
  8  9  1  0
 19 18  2  0
 20 18  1  0
 21 22  1  0
 22 20  1  0
 23 19  1  0
 24 18  1  0
 25 19  1  0
 26 24  2  0
 27 25  1  0
 28 22  2  0
 29 23  2  0
 30 27  1  0
 31 30  2  0
 32 20  1  0
 33 21  1  0
 34 30  1  0
 23 21  1  0
 25 26  1  0
 36 40  1  0
 37 35  1  0
 38 37  1  0
 39 35  1  0
 40 39  1  0
 38 36  1  0
  9 41  1  0
 10 42  1  0
 10 43  1  0
 15 44  1  0
 15 45  1  0
 15 46  1  0
 16 47  1  0
 16 48  1  0
 16 49  1  0
 17 50  1  0
 26 51  1  0
 27 52  1  0
 27 53  1  0
 32 54  1  0
 32 55  1  0
 32 56  1  0
 33 57  1  0
 33 58  1  0
 33 59  1  0
 34 60  1  0
 35 61  1  0
 36 62  1  0
 37 63  1  0
 37 64  1  0
 38 65  1  0
 38 66  1  0
 39 67  1  0
 39 68  1  0
 40 69  1  0
 40 70  1  0
M  END
$$$$
