
     RDKit          3D

 35 34  0  0  0  0  0  0  0  0999 V2000
    0.0000    0.0000    0.0000 Ca  0  0  0  0  0 15  0  0  0  0  0  0
   -1.7561   -0.3976   -1.6539 S   0  0  0  0  0  0  0  0  0  0  0  0
   -0.5098   -0.1072   -0.3867 C   0  0  0  0  0  0  0  0  0  0  0  0
    0.8144    0.0446   -0.8173 C   0  0  0  0  0  0  0  0  0  0  0  0
   -1.6441    0.7992   -2.4804 O   0  0  0  0  0  0  0  0  0  0  0  0
   -2.9863   -0.5044   -0.8669 O   0  0  0  0  0  0  0  0  0  0  0  0
   -1.2947   -1.6391   -2.2652 O   0  0  0  0  0  0  0  0  0  0  0  0
   -0.8311   -0.0334    0.9708 C   0  0  0  0  0  0  0  0  0  0  0  0
    0.1805    0.1939    1.9041 C   0  0  0  0  0  0  0  0  0  0  0  0
    1.8094    0.2704    0.1258 C   0  0  0  0  0  0  0  0  0  0  0  0
    1.5039    0.3462    1.4814 C   0  0  0  0  0  0  0  0  0  0  0  0
   -2.0966   -0.1705    1.4725 O   0  0  0  0  0  0  0  0  0  0  0  0
    3.1128    0.4240   -0.2492 O   0  0  0  0  0  0  0  0  0  0  0  0
    2.3530   -0.0487   -0.6620 S   0  0  0  0  0  0  0  0  0  0  0  0
    0.6292    0.0501   -0.1501 C   0  0  0  0  0  0  0  0  0  0  0  0
   -0.1772   -1.0662   -0.4062 C   0  0  0  0  0  0  0  0  0  0  0  0
    2.8400   -1.1905    0.1040 O   0  0  0  0  0  0  0  0  0  0  0  0
    2.8789    1.2544   -0.2498 O   0  0  0  0  0  0  0  0  0  0  0  0
    2.2388   -0.2500   -2.1022 O   0  0  0  0  0  0  0  0  0  0  0  0
    0.1019    1.1820    0.4761 C   0  0  0  0  0  0  0  0  0  0  0  0
   -1.2423    1.1967    0.8487 C   0  0  0  0  0  0  0  0  0  0  0  0
   -1.5139   -1.0345   -0.0284 C   0  0  0  0  0  0  0  0  0  0  0  0
   -2.0526    0.0864    0.5962 C   0  0  0  0  0  0  0  0  0  0  0  0
    0.8206    2.3108    0.7615 O   0  0  0  0  0  0  0  0  0  0  0  0
   -2.3357   -2.0997   -0.2586 O   0  0  0  0  0  0  0  0  0  0  0  0
    1.0276   -0.0187   -1.8803 H   0  0  0  0  0  0  0  0  0  0  0  0
   -0.0662    0.2517    2.9598 H   0  0  0  0  0  0  0  0  0  0  0  0
    2.2910    0.5231    2.2072 H   0  0  0  0  0  0  0  0  0  0  0  0
   -2.6981   -0.3252    0.6961 H   0  0  0  0  0  0  0  0  0  0  0  0
    3.1435    0.3430   -1.2179 H   0  0  0  0  0  0  0  0  0  0  0  0
    0.2663   -1.9288   -0.8948 H   0  0  0  0  0  0  0  0  0  0  0  0
   -1.6548    2.0750    1.3356 H   0  0  0  0  0  0  0  0  0  0  0  0
   -3.0983    0.0975    0.8859 H   0  0  0  0  0  0  0  0  0  0  0  0
    1.7476    2.1499    0.4403 H   0  0  0  0  0  0  0  0  0  0  0  0
   -1.8014   -2.7845   -0.6961 H   0  0  0  0  0  0  0  0  0  0  0  0
  3  2  1  0
  4  3  2  0
  5  2  1  0
  6  2  2  0
  7  2  2  0
  8  3  1  0
  9  8  2  0
 10  4  1  0
 11  9  1  0
 12  8  1  0
 13 10  1  0
 10 11  2  0
 15 14  1  0
 16 15  2  0
 17 14  1  0
 18 14  2  0
 19 14  2  0
 20 15  1  0
 21 20  2  0
 22 16  1  0
 23 21  1  0
 24 20  1  0
 25 22  1  0
 22 23  2  0
  4 26  1  0
  9 27  1  0
 11 28  1  0
 12 29  1  0
 13 30  1  0
 16 31  1  0
 21 32  1  0
 23 33  1  0
 24 34  1  0
 25 35  1  0
M  CHG  3   1   2   5  -1  17  -1
M  END
$$$$
