
     RDKit          3D

 35 34  0  0  0  0  0  0  0  0999 V2000
    0.0000    0.0000    0.0000 Ca  0  0  0  0  0 15  0  0  0  0  0  0
    2.3341    0.7251   -0.0583 S   0  0  0  0  0  0  0  0  0  0  0  0
    0.6338    0.1319   -0.0434 C   0  0  0  0  0  0  0  0  0  0  0  0
   -0.3388    0.9963    0.4750 C   0  0  0  0  0  0  0  0  0  0  0  0
    3.0561   -0.4036   -0.6494 O   0  0  0  0  0  0  0  0  0  0  0  0
    2.5936    0.9613    1.3575 O   0  0  0  0  0  0  0  0  0  0  0  0
    2.2409    1.9157   -0.8959 O   0  0  0  0  0  0  0  0  0  0  0  0
    0.2816   -1.1318   -0.5234 C   0  0  0  0  0  0  0  0  0  0  0  0
   -1.0539   -1.5331   -0.4844 C   0  0  0  0  0  0  0  0  0  0  0  0
   -1.6642    0.5804    0.5064 C   0  0  0  0  0  0  0  0  0  0  0  0
   -2.0295   -0.6757    0.0316 C   0  0  0  0  0  0  0  0  0  0  0  0
    1.1688   -2.0338   -1.0444 O   0  0  0  0  0  0  0  0  0  0  0  0
   -2.6443    1.3903    1.0028 O   0  0  0  0  0  0  0  0  0  0  0  0
    2.4842    0.4765   -0.1718 S   0  0  0  0  0  0  0  0  0  0  0  0
    0.7228    0.1143   -0.0605 C   0  0  0  0  0  0  0  0  0  0  0  0
   -0.1079    1.0987    0.4897 C   0  0  0  0  0  0  0  0  0  0  0  0
    2.5124    1.6563   -1.0288 O   0  0  0  0  0  0  0  0  0  0  0  0
    3.0167   -0.7462   -0.7794 O   0  0  0  0  0  0  0  0  0  0  0  0
    2.8542    0.6861    1.2233 O   0  0  0  0  0  0  0  0  0  0  0  0
    0.1883   -1.0991   -0.5021 C   0  0  0  0  0  0  0  0  0  0  0  0
   -1.1832   -1.3282   -0.3926 C   0  0  0  0  0  0  0  0  0  0  0  0
   -1.4714    0.8556    0.5920 C   0  0  0  0  0  0  0  0  0  0  0  0
   -2.0178   -0.3506    0.1552 C   0  0  0  0  0  0  0  0  0  0  0  0
    0.9235   -2.1144   -1.0511 O   0  0  0  0  0  0  0  0  0  0  0  0
   -2.2602    1.8300    1.1315 O   0  0  0  0  0  0  0  0  0  0  0  0
   -0.0290    1.9714    0.8395 H   0  0  0  0  0  0  0  0  0  0  0  0
   -1.3305   -2.5147   -0.8568 H   0  0  0  0  0  0  0  0  0  0  0  0
   -3.0684   -0.9876    0.0621 H   0  0  0  0  0  0  0  0  0  0  0  0
    2.0667   -1.6089   -1.0050 H   0  0  0  0  0  0  0  0  0  0  0  0
   -2.2169    2.2168    1.2860 H   0  0  0  0  0  0  0  0  0  0  0  0
    0.3213    2.0375    0.8290 H   0  0  0  0  0  0  0  0  0  0  0  0
   -1.5956   -2.2720   -0.7366 H   0  0  0  0  0  0  0  0  0  0  0  0
   -3.0812   -0.5483    0.2315 H   0  0  0  0  0  0  0  0  0  0  0  0
    1.8697   -1.8079   -1.0627 H   0  0  0  0  0  0  0  0  0  0  0  0
   -3.1758    1.5117    1.1333 H   0  0  0  0  0  0  0  0  0  0  0  0
  3  2  1  0
  4  3  2  0
  5  2  1  0
  6  2  2  0
  7  2  2  0
  8  3  1  0
  9  8  2  0
 10  4  1  0
 11  9  1  0
 12  8  1  0
 13 10  1  0
 10 11  2  0
 15 14  1  0
 16 15  2  0
 17 14  1  0
 18 14  2  0
 19 14  2  0
 20 15  1  0
 21 20  2  0
 22 16  1  0
 23 21  1  0
 24 20  1  0
 25 22  1  0
 22 23  2  0
  4 26  1  0
  9 27  1  0
 11 28  1  0
 12 29  1  0
 13 30  1  0
 16 31  1  0
 21 32  1  0
 23 33  1  0
 24 34  1  0
 25 35  1  0
M  CHG  3   1   2   5  -1  17  -1
M  END
$$$$
