
     RDKit          3D

 35 34  0  0  0  0  0  0  0  0999 V2000
    0.0000    0.0000    0.0000 Ca  0  0  0  0  0 15  0  0  0  0  0  0
    2.3979   -0.4512    0.1543 S   0  0  0  0  0  0  0  0  0  0  0  0
    0.6458   -0.0528    0.0319 C   0  0  0  0  0  0  0  0  0  0  0  0
   -0.2595   -1.1153    0.1479 C   0  0  0  0  0  0  0  0  0  0  0  0
    2.5847   -1.3773   -0.9571 O   0  0  0  0  0  0  0  0  0  0  0  0
    2.4924   -1.0313    1.4893 O   0  0  0  0  0  0  0  0  0  0  0  0
    3.0307    0.8594   -0.0072 O   0  0  0  0  0  0  0  0  0  0  0  0
    0.1912    1.2525   -0.1699 C   0  0  0  0  0  0  0  0  0  0  0  0
   -1.1797    1.4962   -0.2561 C   0  0  0  0  0  0  0  0  0  0  0  0
   -1.6214   -0.8546    0.0597 C   0  0  0  0  0  0  0  0  0  0  0  0
   -2.0885    0.4408   -0.1412 C   0  0  0  0  0  0  0  0  0  0  0  0
    1.0079    2.3433   -0.2933 O   0  0  0  0  0  0  0  0  0  0  0  0
   -2.5387   -1.8596    0.1672 O   0  0  0  0  0  0  0  0  0  0  0  0
   -2.4852   -0.4655    0.1870 S   0  0  0  0  0  0  0  0  0  0  0  0
   -0.7236   -0.1095    0.0599 C   0  0  0  0  0  0  0  0  0  0  0  0
    0.1308   -1.1717   -0.2621 C   0  0  0  0  0  0  0  0  0  0  0  0
   -3.0449    0.8454    0.5277 O   0  0  0  0  0  0  0  0  0  0  0  0
   -2.8091   -0.9480   -1.1506 O   0  0  0  0  0  0  0  0  0  0  0  0
   -2.5328   -1.4556    1.2568 O   0  0  0  0  0  0  0  0  0  0  0  0
   -0.2116    1.1734    0.2717 C   0  0  0  0  0  0  0  0  0  0  0  0
    1.1612    1.3943    0.1608 C   0  0  0  0  0  0  0  0  0  0  0  0
    1.4952   -0.9358   -0.3689 C   0  0  0  0  0  0  0  0  0  0  0  0
    2.0193    0.3393   -0.1602 C   0  0  0  0  0  0  0  0  0  0  0  0
   -0.9707    2.2669    0.5894 O   0  0  0  0  0  0  0  0  0  0  0  0
    2.3073   -1.9866   -0.6837 O   0  0  0  0  0  0  0  0  0  0  0  0
    0.1295   -2.1172    0.3043 H   0  0  0  0  0  0  0  0  0  0  0  0
   -1.5359    2.5097   -0.4129 H   0  0  0  0  0  0  0  0  0  0  0  0
   -3.1550    0.6301   -0.2082 H   0  0  0  0  0  0  0  0  0  0  0  0
    1.9421    2.0133   -0.2114 H   0  0  0  0  0  0  0  0  0  0  0  0
   -2.0438   -2.6859    0.3027 H   0  0  0  0  0  0  0  0  0  0  0  0
   -0.2811   -2.1641   -0.4241 H   0  0  0  0  0  0  0  0  0  0  0  0
    1.5561    2.3923    0.3259 H   0  0  0  0  0  0  0  0  0  0  0  0
    3.0833    0.5319   -0.2417 H   0  0  0  0  0  0  0  0  0  0  0  0
   -1.9146    1.9565    0.6323 H   0  0  0  0  0  0  0  0  0  0  0  0
    3.2203   -1.6631   -0.7202 H   0  0  0  0  0  0  0  0  0  0  0  0
  3  2  1  0
  4  3  2  0
  5  2  1  0
  6  2  2  0
  7  2  2  0
  8  3  1  0
  9  8  2  0
 10  4  1  0
 11  9  1  0
 12  8  1  0
 13 10  1  0
 10 11  2  0
 15 14  1  0
 16 15  2  0
 17 14  1  0
 18 14  2  0
 19 14  2  0
 20 15  1  0
 21 20  2  0
 22 16  1  0
 23 21  1  0
 24 20  1  0
 25 22  1  0
 22 23  2  0
  4 26  1  0
  9 27  1  0
 11 28  1  0
 12 29  1  0
 13 30  1  0
 16 31  1  0
 21 32  1  0
 23 33  1  0
 24 34  1  0
 25 35  1  0
M  CHG  3   1   2   5  -1  17  -1
M  END
$$$$
