
     RDKit          3D

 82 79  0  0  0  0  0  0  0  0999 V2000
    2.7856    0.2741    0.3026 C   0  0  0  0  0  0  0  0  0  0  0  0
    1.5897    0.2998    0.9214 C   0  0  0  0  0  0  0  0  0  0  0  0
   -2.8176   -0.0926   -1.3856 N   0  0  0  0  0  0  0  0  0  0  0  0
    0.4073   -0.5985    0.6754 C   0  0  0  0  0  0  0  0  0  0  0  0
   -1.8969   -0.7498   -0.4416 C   0  0  1  0  0  0  0  0  0  0  0  0
    3.8748    1.2347    0.7008 C   0  0  0  0  0  0  0  0  0  0  0  0
    3.1610   -0.6604   -0.8139 C   0  0  0  0  0  0  0  0  0  0  0  0
   -3.5109    1.0766   -0.8634 C   0  0  0  0  0  0  0  0  0  0  0  0
   -0.6974    0.1503   -0.0798 C   0  0  0  0  0  0  0  0  0  0  0  0
   -2.6345   -1.2853    0.7892 C   0  0  0  0  0  0  0  0  0  0  0  0
   -0.7365   -0.4993   -0.6172 C   0  0  1  0  0  0  0  0  0  0  0  0
    0.5103    0.2579   -0.1230 C   0  0  2  0  0  0  0  0  0  0  0  0
   -1.9614    0.4046   -0.8355 C   0  0  2  0  0  0  0  0  0  0  0  0
    1.7033   -0.7076    0.0546 C   0  0  1  0  0  0  0  0  0  0  0  0
   -2.6317    0.8107    0.4668 C   0  0  0  0  0  0  0  0  0  0  0  0
    3.0005    0.0757    0.2270 C   0  0  0  0  0  0  0  0  0  0  0  0
   -3.3923    0.0951    1.1043 O   0  0  0  0  0  0  0  0  0  0  0  0
    3.2521    1.1953   -0.1901 O   0  0  0  0  0  0  0  0  0  0  0  0
   -2.9180   -0.3678   -1.6033 O   0  0  0  0  0  0  0  0  0  0  0  0
    1.4788   -1.5851    1.1630 O   0  0  0  0  0  0  0  0  0  0  0  0
   -0.4268   -1.1440   -1.8737 O   0  0  0  0  0  0  0  0  0  0  0  0
    0.2027    0.9253    1.1054 O   0  0  0  0  0  0  0  0  0  0  0  0
    3.9383   -0.6365    0.8969 O   0  0  0  0  0  0  0  0  0  0  0  0
   -2.3867    2.0778    0.8439 O   0  0  0  0  0  0  0  0  0  0  0  0
   -2.8538    0.1768    0.0050 C   0  0  0  0  0  0  0  0  0  0  0  0
   -1.7935    0.9152    0.3870 C   0  0  0  0  0  0  0  0  0  0  0  0
    2.2034   -1.0903    0.0625 N   0  0  0  0  0  0  0  0  0  0  0  0
   -0.3988    0.4329    0.6820 C   0  0  0  0  0  0  0  0  0  0  0  0
    2.0137    0.3406   -0.2247 C   0  0  2  0  0  0  0  0  0  0  0  0
   -4.1946    0.8225   -0.2286 C   0  0  0  0  0  0  0  0  0  0  0  0
   -2.8298   -1.3074   -0.2441 C   0  0  0  0  0  0  0  0  0  0  0  0
    3.5510   -1.4088    0.5218 C   0  0  0  0  0  0  0  0  0  0  0  0
    0.5276    0.6437   -0.5216 C   0  0  0  0  0  0  0  0  0  0  0  0
    2.8577    0.7862   -1.4250 C   0  0  0  0  0  0  0  0  0  0  0  0
    1.4293    1.0380    1.7090 H   0  0  0  0  0  0  0  0  0  0  0  0
   -2.2969    0.1763   -2.2212 H   0  0  0  0  0  0  0  0  0  0  0  0
    0.0389   -0.9352    1.6523 H   0  0  0  0  0  0  0  0  0  0  0  0
    0.6927   -1.5024    0.1288 H   0  0  0  0  0  0  0  0  0  0  0  0
   -1.5036   -1.6226   -0.9787 H   0  0  0  0  0  0  0  0  0  0  0  0
    4.7731    0.6878    1.0008 H   0  0  0  0  0  0  0  0  0  0  0  0
    4.1276    1.8881   -0.1395 H   0  0  0  0  0  0  0  0  0  0  0  0
    3.5824    1.8709    1.5429 H   0  0  0  0  0  0  0  0  0  0  0  0
    3.8766   -1.4042   -0.4512 H   0  0  0  0  0  0  0  0  0  0  0  0
    3.6253   -0.1032   -1.6335 H   0  0  0  0  0  0  0  0  0  0  0  0
    2.3031   -1.1924   -1.2368 H   0  0  0  0  0  0  0  0  0  0  0  0
   -2.8206    1.8742   -0.5734 H   0  0  0  0  0  0  0  0  0  0  0  0
   -4.1528    0.8281   -0.0138 H   0  0  0  0  0  0  0  0  0  0  0  0
   -4.1619    1.4812   -1.6449 H   0  0  0  0  0  0  0  0  0  0  0  0
   -1.0317    0.9993    0.5318 H   0  0  0  0  0  0  0  0  0  0  0  0
   -0.2731    0.5698   -1.0034 H   0  0  0  0  0  0  0  0  0  0  0  0
   -2.9357   -0.4828    1.4715 H   0  0  0  0  0  0  0  0  0  0  0  0
   -3.5325   -1.8420    0.4941 H   0  0  0  0  0  0  0  0  0  0  0  0
   -2.0012   -1.9779    1.3517 H   0  0  0  0  0  0  0  0  0  0  0  0
   -1.0015   -1.2944    0.0948 H   0  0  0  0  0  0  0  0  0  0  0  0
    0.7649    1.0232   -0.8646 H   0  0  0  0  0  0  0  0  0  0  0  0
   -1.7197    1.2838   -1.4393 H   0  0  0  0  0  0  0  0  0  0  0  0
    1.8410   -1.3271   -0.8385 H   0  0  0  0  0  0  0  0  0  0  0  0
   -3.3853   -0.9390   -0.9578 H   0  0  0  0  0  0  0  0  0  0  0  0
    2.3428   -2.0006    1.3523 H   0  0  0  0  0  0  0  0  0  0  0  0
   -1.2974   -1.2871   -2.3030 H   0  0  0  0  0  0  0  0  0  0  0  0
    0.9525    1.5098    1.3178 H   0  0  0  0  0  0  0  0  0  0  0  0
    4.7213   -0.0424    0.9107 H   0  0  0  0  0  0  0  0  0  0  0  0
   -2.8512    2.1719    1.7025 H   0  0  0  0  0  0  0  0  0  0  0  0
   -1.9265    1.9897    0.5109 H   0  0  0  0  0  0  0  0  0  0  0  0
    1.5466   -1.3889    0.7830 H   0  0  0  0  0  0  0  0  0  0  0  0
   -0.0203    0.9972    1.5446 H   0  0  0  0  0  0  0  0  0  0  0  0
   -0.4108   -0.6159    0.9916 H   0  0  0  0  0  0  0  0  0  0  0  0
    2.3101    0.9332    0.6501 H   0  0  0  0  0  0  0  0  0  0  0  0
   -4.1860    1.8910    0.0055 H   0  0  0  0  0  0  0  0  0  0  0  0
   -4.4883    0.7110   -1.2755 H   0  0  0  0  0  0  0  0  0  0  0  0
   -4.9566    0.3559    0.4025 H   0  0  0  0  0  0  0  0  0  0  0  0
   -3.5090   -1.8157    0.4475 H   0  0  0  0  0  0  0  0  0  0  0  0
   -1.8401   -1.7526   -0.1263 H   0  0  0  0  0  0  0  0  0  0  0  0
   -3.1601   -1.5178   -1.2668 H   0  0  0  0  0  0  0  0  0  0  0  0
    3.5787   -2.4498    0.8567 H   0  0  0  0  0  0  0  0  0  0  0  0
    3.8512   -0.7819    1.3652 H   0  0  0  0  0  0  0  0  0  0  0  0
    4.2844   -1.3136   -0.2831 H   0  0  0  0  0  0  0  0  0  0  0  0
    0.1851    0.0269   -1.3635 H   0  0  0  0  0  0  0  0  0  0  0  0
    0.4403    1.6893   -0.8508 H   0  0  0  0  0  0  0  0  0  0  0  0
    3.9301    0.7141   -1.2175 H   0  0  0  0  0  0  0  0  0  0  0  0
    2.6377    0.1837   -2.3137 H   0  0  0  0  0  0  0  0  0  0  0  0
    2.6508    1.8331   -1.6744 H   0  0  0  0  0  0  0  0  0  0  0  0
  2  1  2  3
  3  5  1  0
  4  2  1  0
  5  9  1  0
  6  1  1  0
  7  1  1  0
  8  3  1  0
  9  4  1  0
 10  5  1  0
 12 11  1  0
 13 11  1  0
 14 12  1  0
 15 13  1  0
 16 14  1  0
 17 15  2  0
 18 16  2  0
 13 19  1  0
 14 20  1  0
 11 21  1  0
 12 22  1  0
 23 16  1  0
 24 15  1  0
 26 25  2  3
 27 29  1  0
 28 26  1  0
 29 33  1  0
 30 25  1  0
 31 25  1  0
 32 27  1  0
 33 28  1  0
 34 29  1  0
  2 35  1  0
  3 36  1  0
  4 37  1  0
  4 38  1  0
  5 39  1  6
  6 40  1  0
  6 41  1  0
  6 42  1  0
  7 43  1  0
  7 44  1  0
  7 45  1  0
  8 46  1  0
  8 47  1  0
  8 48  1  0
  9 49  1  0
  9 50  1  0
 10 51  1  0
 10 52  1  0
 10 53  1  0
 11 54  1  1
 12 55  1  6
 13 56  1  6
 14 57  1  6
 19 58  1  0
 20 59  1  0
 21 60  1  0
 22 61  1  0
 23 62  1  0
 24 63  1  0
 26 64  1  0
 27 65  1  0
 28 66  1  0
 28 67  1  0
 29 68  1  1
 30 69  1  0
 30 70  1  0
 30 71  1  0
 31 72  1  0
 31 73  1  0
 31 74  1  0
 32 75  1  0
 32 76  1  0
 32 77  1  0
 33 78  1  0
 33 79  1  0
 34 80  1  0
 34 81  1  0
 34 82  1  0
M  END
$$$$
