
     RDKit          3D

 82 79  0  0  0  0  0  0  0  0999 V2000
    2.4120   -0.5027    0.0085 C   0  0  0  0  0  0  0  0  0  0  0  0
    1.1120   -0.8378    0.1238 C   0  0  0  0  0  0  0  0  0  0  0  0
   -2.6849   -0.2928    0.2029 N   0  0  0  0  0  0  0  0  0  0  0  0
    0.0904   -0.9388   -0.9787 C   0  0  0  0  0  0  0  0  0  0  0  0
   -1.6289    0.7187    0.0340 C   0  0  1  0  0  0  0  0  0  0  0  0
    3.0871   -0.1089   -1.2764 C   0  0  0  0  0  0  0  0  0  0  0  0
    3.3128   -0.4856    1.2154 C   0  0  0  0  0  0  0  0  0  0  0  0
   -2.6472   -0.9070    1.5256 C   0  0  0  0  0  0  0  0  0  0  0  0
   -0.7311    0.3430   -1.1614 C   0  0  0  0  0  0  0  0  0  0  0  0
   -2.2724    2.0881   -0.2160 C   0  0  0  0  0  0  0  0  0  0  0  0
    0.5138   -0.7442    0.4048 C   0  0  1  0  0  0  0  0  0  0  0  0
   -0.5597    0.2637   -0.0498 C   0  0  2  0  0  0  0  0  0  0  0  0
    1.8857   -0.1110    0.6882 C   0  0  2  0  0  0  0  0  0  0  0  0
   -1.9358   -0.4140   -0.2038 C   0  0  1  0  0  0  0  0  0  0  0  0
    2.4955    0.5944   -0.5172 C   0  0  0  0  0  0  0  0  0  0  0  0
   -3.0127    0.6602   -0.3258 C   0  0  0  0  0  0  0  0  0  0  0  0
    2.4174    1.7822   -0.7894 O   0  0  0  0  0  0  0  0  0  0  0  0
   -3.6398    0.9574   -1.3309 O   0  0  0  0  0  0  0  0  0  0  0  0
    2.7595   -1.1665    1.1479 O   0  0  0  0  0  0  0  0  0  0  0  0
   -1.9200   -1.2625   -1.3586 O   0  0  0  0  0  0  0  0  0  0  0  0
    0.0813   -1.3856    1.6204 O   0  0  0  0  0  0  0  0  0  0  0  0
   -0.1804    0.7998   -1.3288 O   0  0  0  0  0  0  0  0  0  0  0  0
   -3.2332    1.3252    0.8281 O   0  0  0  0  0  0  0  0  0  0  0  0
    3.1901   -0.2592   -1.3069 O   0  0  0  0  0  0  0  0  0  0  0  0
    2.9173   -0.0030    0.0296 C   0  0  0  0  0  0  0  0  0  0  0  0
    1.8173    0.0257   -0.7474 C   0  0  0  0  0  0  0  0  0  0  0  0
   -2.6208    0.6119   -0.7371 N   0  0  0  0  0  0  0  0  0  0  0  0
    0.4461    0.5337   -0.3926 C   0  0  0  0  0  0  0  0  0  0  0  0
   -1.9328   -0.1839    0.2926 C   0  0  2  0  0  0  0  0  0  0  0  0
    4.2204   -0.5349   -0.5084 C   0  0  0  0  0  0  0  0  0  0  0  0
    2.9827    0.4502    1.4623 C   0  0  0  0  0  0  0  0  0  0  0  0
   -3.8424    1.2413   -0.2497 C   0  0  0  0  0  0  0  0  0  0  0  0
   -0.5382   -0.6260   -0.2057 C   0  0  0  0  0  0  0  0  0  0  0  0
   -2.7427   -1.4322    0.6638 C   0  0  0  0  0  0  0  0  0  0  0  0
    0.7262   -1.0898    1.1115 H   0  0  0  0  0  0  0  0  0  0  0  0
   -3.6051    0.1297    0.0649 H   0  0  0  0  0  0  0  0  0  0  0  0
   -0.5676   -1.7907   -0.7679 H   0  0  0  0  0  0  0  0  0  0  0  0
    0.5788   -1.1838   -1.9288 H   0  0  0  0  0  0  0  0  0  0  0  0
   -1.0114    0.8125    0.9364 H   0  0  0  0  0  0  0  0  0  0  0  0
    2.3896    0.0318   -2.1061 H   0  0  0  0  0  0  0  0  0  0  0  0
    3.8147   -0.8732   -1.5672 H   0  0  0  0  0  0  0  0  0  0  0  0
    3.6168    0.8407   -1.1464 H   0  0  0  0  0  0  0  0  0  0  0  0
    3.6987    0.5258    1.3854 H   0  0  0  0  0  0  0  0  0  0  0  0
    4.1609   -1.1615    1.0631 H   0  0  0  0  0  0  0  0  0  0  0  0
    2.7935   -0.8028    2.1266 H   0  0  0  0  0  0  0  0  0  0  0  0
   -1.7048   -1.4385    1.6907 H   0  0  0  0  0  0  0  0  0  0  0  0
   -3.4542   -1.6420    1.6047 H   0  0  0  0  0  0  0  0  0  0  0  0
   -2.7879   -0.1629    2.3180 H   0  0  0  0  0  0  0  0  0  0  0  0
   -0.0447    1.1739   -1.3702 H   0  0  0  0  0  0  0  0  0  0  0  0
   -1.3516    0.2292   -2.0608 H   0  0  0  0  0  0  0  0  0  0  0  0
   -2.8946    2.3885    0.6349 H   0  0  0  0  0  0  0  0  0  0  0  0
   -2.9030    2.0804   -1.1123 H   0  0  0  0  0  0  0  0  0  0  0  0
   -1.5040    2.8563   -0.3543 H   0  0  0  0  0  0  0  0  0  0  0  0
    0.6349   -1.5304   -0.3511 H   0  0  0  0  0  0  0  0  0  0  0  0
   -0.6120    1.0828    0.6782 H   0  0  0  0  0  0  0  0  0  0  0  0
    1.8252    0.6036    1.5161 H   0  0  0  0  0  0  0  0  0  0  0  0
   -2.2001   -1.0374    0.6564 H   0  0  0  0  0  0  0  0  0  0  0  0
    3.1340   -1.5653    0.3358 H   0  0  0  0  0  0  0  0  0  0  0  0
   -1.6244   -0.6893   -2.0934 H   0  0  0  0  0  0  0  0  0  0  0  0
    0.8591   -1.8887    1.9421 H   0  0  0  0  0  0  0  0  0  0  0  0
   -0.4039    1.7511   -1.3344 H   0  0  0  0  0  0  0  0  0  0  0  0
   -3.9781    1.9274    0.6173 H   0  0  0  0  0  0  0  0  0  0  0  0
    3.5037    0.3064   -2.0448 H   0  0  0  0  0  0  0  0  0  0  0  0
    1.8947   -0.3490   -1.7693 H   0  0  0  0  0  0  0  0  0  0  0  0
   -2.0020    1.3478   -1.0740 H   0  0  0  0  0  0  0  0  0  0  0  0
    0.4645    1.1587    0.5053 H   0  0  0  0  0  0  0  0  0  0  0  0
    0.1170    1.1870   -1.2090 H   0  0  0  0  0  0  0  0  0  0  0  0
   -1.7922    0.4237    1.1959 H   0  0  0  0  0  0  0  0  0  0  0  0
    4.9923    0.2402   -0.4649 H   0  0  0  0  0  0  0  0  0  0  0  0
    4.1377   -0.8624   -1.5501 H   0  0  0  0  0  0  0  0  0  0  0  0
    4.5533   -1.3947    0.0826 H   0  0  0  0  0  0  0  0  0  0  0  0
    2.0164    0.7566    1.8678 H   0  0  0  0  0  0  0  0  0  0  0  0
    3.6688    1.2991    1.5555 H   0  0  0  0  0  0  0  0  0  0  0  0
    3.3506   -0.3632    2.0973 H   0  0  0  0  0  0  0  0  0  0  0  0
   -3.6528    1.8596    0.6336 H   0  0  0  0  0  0  0  0  0  0  0  0
   -4.2476    1.8925   -1.0310 H   0  0  0  0  0  0  0  0  0  0  0  0
   -4.6179    0.5058   -0.0185 H   0  0  0  0  0  0  0  0  0  0  0  0
   -0.1118   -1.3292    0.5230 H   0  0  0  0  0  0  0  0  0  0  0  0
   -0.6372   -1.1828   -1.1481 H   0  0  0  0  0  0  0  0  0  0  0  0
   -2.9544   -2.0492   -0.2163 H   0  0  0  0  0  0  0  0  0  0  0  0
   -3.6949   -1.1725    1.1372 H   0  0  0  0  0  0  0  0  0  0  0  0
   -2.1913   -2.0508    1.3800 H   0  0  0  0  0  0  0  0  0  0  0  0
  2  1  2  3
  3  5  1  0
  4  2  1  0
  5  9  1  0
  6  1  1  0
  7  1  1  0
  8  3  1  0
  9  4  1  0
 10  5  1  0
 12 11  1  0
 13 11  1  0
 14 12  1  0
 15 13  1  0
 16 14  1  0
 17 15  2  0
 18 16  2  0
 13 19  1  0
 14 20  1  0
 11 21  1  0
 12 22  1  0
 23 16  1  0
 24 15  1  0
 26 25  2  3
 27 29  1  0
 28 26  1  0
 29 33  1  0
 30 25  1  0
 31 25  1  0
 32 27  1  0
 33 28  1  0
 34 29  1  0
  2 35  1  0
  3 36  1  0
  4 37  1  0
  4 38  1  0
  5 39  1  1
  6 40  1  0
  6 41  1  0
  6 42  1  0
  7 43  1  0
  7 44  1  0
  7 45  1  0
  8 46  1  0
  8 47  1  0
  8 48  1  0
  9 49  1  0
  9 50  1  0
 10 51  1  0
 10 52  1  0
 10 53  1  0
 11 54  1  6
 12 55  1  1
 13 56  1  1
 14 57  1  1
 19 58  1  0
 20 59  1  0
 21 60  1  0
 22 61  1  0
 23 62  1  0
 24 63  1  0
 26 64  1  0
 27 65  1  0
 28 66  1  0
 28 67  1  0
 29 68  1  1
 30 69  1  0
 30 70  1  0
 30 71  1  0
 31 72  1  0
 31 73  1  0
 31 74  1  0
 32 75  1  0
 32 76  1  0
 32 77  1  0
 33 78  1  0
 33 79  1  0
 34 80  1  0
 34 81  1  0
 34 82  1  0
M  END
$$$$
