
     RDKit          3D

 82 79  0  0  0  0  0  0  0  0999 V2000
    2.5821    0.3973   -0.1567 C   0  0  0  0  0  0  0  0  0  0  0  0
    1.3568    0.8107   -0.5347 C   0  0  0  0  0  0  0  0  0  0  0  0
   -2.4222   -0.5285    1.3463 N   0  0  0  0  0  0  0  0  0  0  0  0
    0.3407    0.0418   -1.3335 C   0  0  0  0  0  0  0  0  0  0  0  0
   -1.5691    0.2389    0.4205 C   0  0  1  0  0  0  0  0  0  0  0  0
    3.4978    1.3108    0.6156 C   0  0  0  0  0  0  0  0  0  0  0  0
    3.1550   -0.9655   -0.4334 C   0  0  0  0  0  0  0  0  0  0  0  0
   -3.4621   -1.3324    0.7213 C   0  0  0  0  0  0  0  0  0  0  0  0
   -0.7022   -0.6785   -0.4688 C   0  0  0  0  0  0  0  0  0  0  0  0
   -2.3823    1.2543   -0.3879 C   0  0  0  0  0  0  0  0  0  0  0  0
   -0.5935    0.4461   -0.5684 C   0  0  1  0  0  0  0  0  0  0  0  0
    0.5727   -0.0544    0.3028 C   0  0  2  0  0  0  0  0  0  0  0  0
   -1.4966    1.4680    0.1418 C   0  0  2  0  0  0  0  0  0  0  0  0
    1.5437   -0.9400   -0.4977 C   0  0  1  0  0  0  0  0  0  0  0  0
   -2.1968    0.9184    1.3767 C   0  0  0  0  0  0  0  0  0  0  0  0
    2.8896   -1.0714    0.2073 C   0  0  0  0  0  0  0  0  0  0  0  0
   -1.9718    1.2005    2.5411 O   0  0  0  0  0  0  0  0  0  0  0  0
    3.4520   -2.1309    0.4471 O   0  0  0  0  0  0  0  0  0  0  0  0
   -2.4838    1.9020   -0.8221 O   0  0  0  0  0  0  0  0  0  0  0  0
    0.9316   -2.2368   -0.6480 O   0  0  0  0  0  0  0  0  0  0  0  0
   -0.0775    1.0741   -1.7587 O   0  0  0  0  0  0  0  0  0  0  0  0
    0.0381   -0.8285    1.3895 O   0  0  0  0  0  0  0  0  0  0  0  0
    3.4895    0.0999    0.4846 O   0  0  0  0  0  0  0  0  0  0  0  0
   -3.2055    0.0743    1.0518 O   0  0  0  0  0  0  0  0  0  0  0  0
    2.3088    0.6379   -0.2396 C   0  0  0  0  0  0  0  0  0  0  0  0
    1.2303    1.4449   -0.2712 C   0  0  0  0  0  0  0  0  0  0  0  0
   -1.1777   -1.4162    0.6391 N   0  0  0  0  0  0  0  0  0  0  0  0
    0.0339    1.4320    0.6436 C   0  0  0  0  0  0  0  0  0  0  0  0
   -1.3126   -0.4717   -0.4816 C   0  0  2  0  0  0  0  0  0  0  0  0
    3.4267    0.8130   -1.2342 C   0  0  0  0  0  0  0  0  0  0  0  0
    2.5211   -0.4905    0.7319 C   0  0  0  0  0  0  0  0  0  0  0  0
   -2.2137   -1.3324    1.6574 C   0  0  0  0  0  0  0  0  0  0  0  0
   -1.2565    1.0155   -0.0734 C   0  0  0  0  0  0  0  0  0  0  0  0
   -2.5691   -0.7500   -1.3151 C   0  0  0  0  0  0  0  0  0  0  0  0
    1.0446    1.8195   -0.2638 H   0  0  0  0  0  0  0  0  0  0  0  0
   -1.8299   -1.1355    1.9135 H   0  0  0  0  0  0  0  0  0  0  0  0
    0.8348   -0.6947   -1.9770 H   0  0  0  0  0  0  0  0  0  0  0  0
   -0.1520    0.7328   -2.0275 H   0  0  0  0  0  0  0  0  0  0  0  0
   -0.8990    0.8174    1.0681 H   0  0  0  0  0  0  0  0  0  0  0  0
    4.4319    1.4635    0.0652 H   0  0  0  0  0  0  0  0  0  0  0  0
    3.0515    2.2952    0.7917 H   0  0  0  0  0  0  0  0  0  0  0  0
    3.7349    0.8740    1.5912 H   0  0  0  0  0  0  0  0  0  0  0  0
    3.5083   -1.4213    0.4980 H   0  0  0  0  0  0  0  0  0  0  0  0
    4.0033   -0.8845   -1.1209 H   0  0  0  0  0  0  0  0  0  0  0  0
    2.4313   -1.6581   -0.8701 H   0  0  0  0  0  0  0  0  0  0  0  0
   -4.0375   -1.8384    1.5036 H   0  0  0  0  0  0  0  0  0  0  0  0
   -3.0510   -2.1083    0.0694 H   0  0  0  0  0  0  0  0  0  0  0  0
   -4.1703   -0.7206    0.1555 H   0  0  0  0  0  0  0  0  0  0  0  0
   -1.3459   -1.2539   -1.1458 H   0  0  0  0  0  0  0  0  0  0  0  0
   -0.1850   -1.4115    0.1650 H   0  0  0  0  0  0  0  0  0  0  0  0
   -2.9734    0.7725   -1.1737 H   0  0  0  0  0  0  0  0  0  0  0  0
   -3.0655    1.8149    0.2603 H   0  0  0  0  0  0  0  0  0  0  0  0
   -1.7258    1.9881   -0.8666 H   0  0  0  0  0  0  0  0  0  0  0  0
   -1.2041   -0.4035   -0.8993 H   0  0  0  0  0  0  0  0  0  0  0  0
    1.0953    0.8109    0.7251 H   0  0  0  0  0  0  0  0  0  0  0  0
   -0.9322    2.3637    0.4214 H   0  0  0  0  0  0  0  0  0  0  0  0
    1.7528   -0.5480   -1.4979 H   0  0  0  0  0  0  0  0  0  0  0  0
   -3.1799    1.2134   -0.8095 H   0  0  0  0  0  0  0  0  0  0  0  0
    1.6611   -2.8538   -0.8589 H   0  0  0  0  0  0  0  0  0  0  0  0
   -0.8252    1.5897   -2.1274 H   0  0  0  0  0  0  0  0  0  0  0  0
   -0.0413   -1.7442    1.0433 H   0  0  0  0  0  0  0  0  0  0  0  0
    4.3355   -0.1504    0.9136 H   0  0  0  0  0  0  0  0  0  0  0  0
   -3.5538   -0.1988    1.9290 H   0  0  0  0  0  0  0  0  0  0  0  0
    1.1929    2.2242   -1.0324 H   0  0  0  0  0  0  0  0  0  0  0  0
   -1.1529   -2.3662    0.2689 H   0  0  0  0  0  0  0  0  0  0  0  0
    0.1920    0.8217    1.5363 H   0  0  0  0  0  0  0  0  0  0  0  0
   -0.0972    2.4570    1.0141 H   0  0  0  0  0  0  0  0  0  0  0  0
   -0.4580   -0.6655   -1.1418 H   0  0  0  0  0  0  0  0  0  0  0  0
    4.3674    1.0209   -0.7138 H   0  0  0  0  0  0  0  0  0  0  0  0
    3.5511   -0.0976   -1.8293 H   0  0  0  0  0  0  0  0  0  0  0  0
    3.2414    1.6400   -1.9277 H   0  0  0  0  0  0  0  0  0  0  0  0
    2.6520   -1.4325    0.1886 H   0  0  0  0  0  0  0  0  0  0  0  0
    1.6928   -0.6333    1.4281 H   0  0  0  0  0  0  0  0  0  0  0  0
    3.4224   -0.3084    1.3266 H   0  0  0  0  0  0  0  0  0  0  0  0
   -2.2282   -0.3563    2.1500 H   0  0  0  0  0  0  0  0  0  0  0  0
   -2.0062   -2.0741    2.4359 H   0  0  0  0  0  0  0  0  0  0  0  0
   -3.2075   -1.5525    1.2574 H   0  0  0  0  0  0  0  0  0  0  0  0
   -2.1103    1.2604    0.5705 H   0  0  0  0  0  0  0  0  0  0  0  0
   -1.3789    1.6361   -0.9719 H   0  0  0  0  0  0  0  0  0  0  0  0
   -2.6231   -1.8046   -1.6068 H   0  0  0  0  0  0  0  0  0  0  0  0
   -2.5545   -0.1563   -2.2359 H   0  0  0  0  0  0  0  0  0  0  0  0
   -3.4862   -0.4956   -0.7737 H   0  0  0  0  0  0  0  0  0  0  0  0
  2  1  2  3
  3  5  1  0
  4  2  1  0
  5  9  1  0
  6  1  1  0
  7  1  1  0
  8  3  1  0
  9  4  1  0
 10  5  1  0
 12 11  1  0
 13 11  1  0
 14 12  1  0
 15 13  1  0
 16 14  1  0
 17 15  2  0
 18 16  2  0
 13 19  1  0
 14 20  1  0
 11 21  1  0
 12 22  1  0
 23 16  1  0
 24 15  1  0
 26 25  2  3
 27 29  1  0
 28 26  1  0
 29 33  1  0
 30 25  1  0
 31 25  1  0
 32 27  1  0
 33 28  1  0
 34 29  1  0
  2 35  1  0
  3 36  1  0
  4 37  1  0
  4 38  1  0
  5 39  1  1
  6 40  1  0
  6 41  1  0
  6 42  1  0
  7 43  1  0
  7 44  1  0
  7 45  1  0
  8 46  1  0
  8 47  1  0
  8 48  1  0
  9 49  1  0
  9 50  1  0
 10 51  1  0
 10 52  1  0
 10 53  1  0
 11 54  1  6
 12 55  1  1
 13 56  1  1
 14 57  1  6
 19 58  1  0
 20 59  1  0
 21 60  1  0
 22 61  1  0
 23 62  1  0
 24 63  1  0
 26 64  1  0
 27 65  1  0
 28 66  1  0
 28 67  1  0
 29 68  1  6
 30 69  1  0
 30 70  1  0
 30 71  1  0
 31 72  1  0
 31 73  1  0
 31 74  1  0
 32 75  1  0
 32 76  1  0
 32 77  1  0
 33 78  1  0
 33 79  1  0
 34 80  1  0
 34 81  1  0
 34 82  1  0
M  END
$$$$
