
     RDKit          3D

 82 79  0  0  0  0  0  0  0  0999 V2000
   -2.2390   -0.3184   -0.8073 C   0  0  0  0  0  0  0  0  0  0  0  0
   -1.7554    0.5319    0.1192 C   0  0  0  0  0  0  0  0  0  0  0  0
    2.3442    0.2090    1.7145 N   0  0  0  0  0  0  0  0  0  0  0  0
   -0.7459    1.6332   -0.0590 C   0  0  0  0  0  0  0  0  0  0  0  0
    1.3028    0.2045    0.6723 C   0  0  1  0  0  0  0  0  0  0  0  0
   -1.8654   -0.3347   -2.2635 C   0  0  0  0  0  0  0  0  0  0  0  0
   -3.2482   -1.3703   -0.4228 C   0  0  0  0  0  0  0  0  0  0  0  0
    2.9436   -1.0994    1.9298 C   0  0  0  0  0  0  0  0  0  0  0  0
    0.4673    1.4875    0.8709 C   0  0  0  0  0  0  0  0  0  0  0  0
    1.9217    0.1411   -0.7275 C   0  0  0  0  0  0  0  0  0  0  0  0
    0.0121   -0.4567   -0.9727 C   0  0  1  0  0  0  0  0  0  0  0  0
    0.3036   -1.2479    0.3210 C   0  0  2  0  0  0  0  0  0  0  0  0
   -1.0525    0.6470   -0.9114 C   0  0  2  0  0  0  0  0  0  0  0  0
    0.7835   -0.4340    1.5350 C   0  0  1  0  0  0  0  0  0  0  0  0
   -2.4814    0.1212   -0.8558 C   0  0  0  0  0  0  0  0  0  0  0  0
    2.1034    0.2994    1.2752 C   0  0  0  0  0  0  0  0  0  0  0  0
   -3.3867    0.5111   -1.5811 O   0  0  0  0  0  0  0  0  0  0  0  0
    3.1446   -0.1707    0.8483 O   0  0  0  0  0  0  0  0  0  0  0  0
   -0.9043    1.4162   -2.1370 O   0  0  0  0  0  0  0  0  0  0  0  0
   -0.2528    0.4484    1.9777 O   0  0  0  0  0  0  0  0  0  0  0  0
    1.2508    0.1261   -1.4381 O   0  0  0  0  0  0  0  0  0  0  0  0
    1.2640   -2.2771    0.0143 O   0  0  0  0  0  0  0  0  0  0  0  0
    2.0422    1.6015    1.6491 O   0  0  0  0  0  0  0  0  0  0  0  0
   -2.7249   -0.7783    0.1075 O   0  0  0  0  0  0  0  0  0  0  0  0
    2.9178   -0.0625    0.3535 C   0  0  0  0  0  0  0  0  0  0  0  0
    1.8725   -0.8194   -0.0332 C   0  0  0  0  0  0  0  0  0  0  0  0
   -2.7314    0.6739   -1.0112 N   0  0  0  0  0  0  0  0  0  0  0  0
    0.4662   -0.7976    0.5021 C   0  0  0  0  0  0  0  0  0  0  0  0
   -1.9365   -0.0098    0.0259 C   0  0  2  0  0  0  0  0  0  0  0  0
    4.2722   -0.2460   -0.2811 C   0  0  0  0  0  0  0  0  0  0  0  0
    2.8705    1.0133    1.4032 C   0  0  0  0  0  0  0  0  0  0  0  0
   -3.9651    1.2520   -0.4918 C   0  0  0  0  0  0  0  0  0  0  0  0
   -0.5014   -0.1886   -0.5183 C   0  0  0  0  0  0  0  0  0  0  0  0
   -2.5721   -1.3546    0.3920 C   0  0  0  0  0  0  0  0  0  0  0  0
   -2.1246    0.4397    1.1418 H   0  0  0  0  0  0  0  0  0  0  0  0
    3.0694    0.8856    1.4785 H   0  0  0  0  0  0  0  0  0  0  0  0
   -1.2466    2.5798    0.1811 H   0  0  0  0  0  0  0  0  0  0  0  0
   -0.4082    1.7328   -1.0926 H   0  0  0  0  0  0  0  0  0  0  0  0
    0.6502   -0.6645    0.8199 H   0  0  0  0  0  0  0  0  0  0  0  0
   -1.1801    0.4649   -2.5500 H   0  0  0  0  0  0  0  0  0  0  0  0
   -2.7630   -0.2250   -2.8818 H   0  0  0  0  0  0  0  0  0  0  0  0
   -1.3873   -1.2870   -2.5175 H   0  0  0  0  0  0  0  0  0  0  0  0
   -2.8556   -2.3689   -0.6412 H   0  0  0  0  0  0  0  0  0  0  0  0
   -3.4978   -1.3386    0.6430 H   0  0  0  0  0  0  0  0  0  0  0  0
   -4.1765   -1.2290   -0.9862 H   0  0  0  0  0  0  0  0  0  0  0  0
    3.5095   -1.4436    1.0595 H   0  0  0  0  0  0  0  0  0  0  0  0
    3.6394   -1.0423    2.7733 H   0  0  0  0  0  0  0  0  0  0  0  0
    2.1859   -1.8475    2.1843 H   0  0  0  0  0  0  0  0  0  0  0  0
    1.1084    2.3693    0.7337 H   0  0  0  0  0  0  0  0  0  0  0  0
    0.1125    1.5281    1.9106 H   0  0  0  0  0  0  0  0  0  0  0  0
    1.1495    0.1074   -1.5011 H   0  0  0  0  0  0  0  0  0  0  0  0
    2.5323   -0.7578   -0.8583 H   0  0  0  0  0  0  0  0  0  0  0  0
    2.5566    1.0124   -0.9238 H   0  0  0  0  0  0  0  0  0  0  0  0
   -0.2639   -1.1748   -1.7559 H   0  0  0  0  0  0  0  0  0  0  0  0
   -0.6047   -1.7801    0.6169 H   0  0  0  0  0  0  0  0  0  0  0  0
   -0.8915    1.3630   -0.1052 H   0  0  0  0  0  0  0  0  0  0  0  0
    0.9918   -1.1141    2.3701 H   0  0  0  0  0  0  0  0  0  0  0  0
   -1.7743    1.8354   -2.3003 H   0  0  0  0  0  0  0  0  0  0  0  0
    0.2063    1.1607    2.4684 H   0  0  0  0  0  0  0  0  0  0  0  0
    0.9772    0.7497   -2.1459 H   0  0  0  0  0  0  0  0  0  0  0  0
    2.0124   -1.8211   -0.4283 H   0  0  0  0  0  0  0  0  0  0  0  0
    2.9304    1.9435    1.4059 H   0  0  0  0  0  0  0  0  0  0  0  0
   -3.6853   -0.9685    0.0424 H   0  0  0  0  0  0  0  0  0  0  0  0
    2.0330   -1.5592   -0.8184 H   0  0  0  0  0  0  0  0  0  0  0  0
   -2.1762    1.4263   -1.4194 H   0  0  0  0  0  0  0  0  0  0  0  0
    0.3997   -0.2581    1.4509 H   0  0  0  0  0  0  0  0  0  0  0  0
    0.1843   -1.8341    0.7202 H   0  0  0  0  0  0  0  0  0  0  0  0
   -1.8811    0.6213    0.9223 H   0  0  0  0  0  0  0  0  0  0  0  0
    4.2734   -1.0362   -1.0396 H   0  0  0  0  0  0  0  0  0  0  0  0
    4.5925    0.6814   -0.7674 H   0  0  0  0  0  0  0  0  0  0  0  0
    5.0132   -0.5140    0.4794 H   0  0  0  0  0  0  0  0  0  0  0  0
    1.8606    1.2331    1.7558 H   0  0  0  0  0  0  0  0  0  0  0  0
    3.2757    1.9486    1.0012 H   0  0  0  0  0  0  0  0  0  0  0  0
    3.4747    0.7207    2.2686 H   0  0  0  0  0  0  0  0  0  0  0  0
   -4.6590    0.4871   -0.1326 H   0  0  0  0  0  0  0  0  0  0  0  0
   -4.4743    1.7917   -1.2968 H   0  0  0  0  0  0  0  0  0  0  0  0
   -3.7662    1.9670    0.3133 H   0  0  0  0  0  0  0  0  0  0  0  0
   -0.5195   -0.8127   -1.4225 H   0  0  0  0  0  0  0  0  0  0  0  0
   -0.1123    0.7932   -0.8239 H   0  0  0  0  0  0  0  0  0  0  0  0
   -3.5914   -1.2335    0.7716 H   0  0  0  0  0  0  0  0  0  0  0  0
   -2.6115   -2.0255   -0.4733 H   0  0  0  0  0  0  0  0  0  0  0  0
   -2.0085   -1.8577    1.1833 H   0  0  0  0  0  0  0  0  0  0  0  0
  2  1  2  3
  3  5  1  0
  4  2  1  0
  5  9  1  0
  6  1  1  0
  7  1  1  0
  8  3  1  0
  9  4  1  0
 10  5  1  0
 12 11  1  0
 13 11  1  0
 14 12  1  0
 15 13  1  0
 16 14  1  0
 17 15  2  0
 18 16  2  0
 13 19  1  0
 14 20  1  0
 11 21  1  0
 12 22  1  0
 23 16  1  0
 24 15  1  0
 26 25  2  3
 27 29  1  0
 28 26  1  0
 29 33  1  0
 30 25  1  0
 31 25  1  0
 32 27  1  0
 33 28  1  0
 34 29  1  0
  2 35  1  0
  3 36  1  0
  4 37  1  0
  4 38  1  0
  5 39  1  1
  6 40  1  0
  6 41  1  0
  6 42  1  0
  7 43  1  0
  7 44  1  0
  7 45  1  0
  8 46  1  0
  8 47  1  0
  8 48  1  0
  9 49  1  0
  9 50  1  0
 10 51  1  0
 10 52  1  0
 10 53  1  0
 11 54  1  6
 12 55  1  1
 13 56  1  1
 14 57  1  1
 19 58  1  0
 20 59  1  0
 21 60  1  0
 22 61  1  0
 23 62  1  0
 24 63  1  0
 26 64  1  0
 27 65  1  0
 28 66  1  0
 28 67  1  0
 29 68  1  1
 30 69  1  0
 30 70  1  0
 30 71  1  0
 31 72  1  0
 31 73  1  0
 31 74  1  0
 32 75  1  0
 32 76  1  0
 32 77  1  0
 33 78  1  0
 33 79  1  0
 34 80  1  0
 34 81  1  0
 34 82  1  0
M  END
$$$$
