
     RDKit          3D

 34 31  0  0  0  0  0  0  0  0999 V2000
    2.4877    0.1131    0.0877 C   0  0  0  0  0  0  0  0  0  0  0  0
    1.5195   -0.6847   -0.3521 C   0  0  0  0  0  0  0  0  0  0  0  0
   -2.4593    0.8587    0.6449 N   0  0  0  0  0  0  0  0  0  0  0  0
    0.1389   -0.1654   -0.5250 C   0  0  0  0  0  0  0  0  0  0  0  0
   -2.2252   -0.5185    0.2663 C   0  0  0  0  0  0  0  0  0  0  0  0
    2.2038    1.5408    0.4142 C   0  0  0  0  0  0  0  0  0  0  0  0
    3.8640   -0.4503    0.2474 C   0  0  0  0  0  0  0  0  0  0  0  0
   -1.6918    1.7098   -0.2522 C   0  0  0  0  0  0  0  0  0  0  0  0
   -0.7916   -0.9443    0.3464 C   0  0  0  0  0  0  0  0  0  0  0  0
   -3.0460   -1.4592    1.1202 C   0  0  0  0  0  0  0  0  0  0  0  0
    0.5702    0.1982   -0.4189 C   0  0  1  0  0  0  0  0  0  0  0  0
   -0.5498   -0.5094    0.2848 C   0  0  2  0  0  0  0  0  0  0  0  0
    1.8745   -0.2088    0.1835 C   0  0  2  0  0  0  0  0  0  0  0  0
   -1.8493    0.0917   -0.2152 C   0  0  1  0  0  0  0  0  0  0  0  0
    2.9380    0.7302   -0.2561 C   0  0  0  0  0  0  0  0  0  0  0  0
   -3.0444   -0.5727    0.3852 C   0  0  0  0  0  0  0  0  0  0  0  0
    2.7050    1.9645   -0.0881 O   0  0  0  0  0  0  0  0  0  0  0  0
   -3.2037   -1.8085    0.2311 O   0  0  0  0  0  0  0  0  0  0  0  0
    2.2149   -1.5269   -0.0377 O   0  0  0  0  0  0  0  0  0  0  0  0
   -1.8761    1.4727    0.0831 O   0  0  0  0  0  0  0  0  0  0  0  0
    0.5619    0.0375   -1.7958 O   0  0  0  0  0  0  0  0  0  0  0  0
   -0.4897   -0.3106    1.6760 O   0  0  0  0  0  0  0  0  0  0  0  0
   -3.9914    0.1577    1.1175 O   0  0  0  0  0  0  0  0  0  0  0  0
    4.1399    0.2842   -0.8279 O   0  0  0  0  0  0  0  0  0  0  0  0
   -2.4613   -0.1666    0.3938 C   0  0  0  0  0  0  0  0  0  0  0  0
   -1.1929   -0.5410    0.3860 C   0  0  0  0  0  0  0  0  0  0  0  0
    2.9443    0.8001   -0.1540 N   0  0  0  0  0  0  0  0  0  0  0  0
   -0.3853   -0.8466   -0.7762 C   0  0  0  0  0  0  0  0  0  0  0  0
    1.8157   -0.0515    0.1358 C   0  0  0  0  0  0  0  0  0  0  0  0
   -3.2741    0.0013   -0.8448 C   0  0  0  0  0  0  0  0  0  0  0  0
   -3.1142    0.1023    1.7097 C   0  0  0  0  0  0  0  0  0  0  0  0
    3.6463    0.4462   -1.3418 C   0  0  0  0  0  0  0  0  0  0  0  0
    0.8327   -0.0000   -0.9651 C   0  0  0  0  0  0  0  0  0  0  0  0
    1.1887    0.2557    1.4566 C   0  0  0  0  0  0  0  0  0  0  0  0
  2  1  2  0
  3  5  1  0
  4  2  1  0
  5  9  1  0
  6  1  1  0
  7  1  1  0
  8  3  1  0
  9  4  1  0
 10  5  1  0
 12 11  1  0
 13 11  1  0
 14 12  1  0
 15 13  1  0
 16 14  1  0
 17 15  2  0
 18 16  2  0
 13 19  1  6
 14 20  1  1
 11 21  1  6
 12 22  1  1
 23 16  1  0
 24 15  1  0
 26 25  2  0
 27 29  1  0
 28 26  1  0
 29 33  1  0
 30 25  1  0
 31 25  1  0
 32 27  1  0
 33 28  1  0
 34 29  1  0
M  END
