
     RDKit          3D

 67 67  0  0  0  0  0  0  0  0999 V2000
   -1.1751   -0.1651    0.9402 C   0  0  0  0  0  0  0  0  0  0  0  0
    0.3614   -0.4507   -0.9767 C   0  0  0  0  0  0  0  0  0  0  0  0
   -0.7956   -0.7243   -0.3611 C   0  0  0  0  0  0  0  0  0  0  0  0
   -0.4536    0.0433    1.8940 O   0  0  0  0  0  0  0  0  0  0  0  0
   -2.4993    0.0472    0.9743 O   0  0  0  0  0  0  0  0  0  0  0  0
    1.3183    0.5530   -0.4998 C   0  0  0  0  0  0  0  0  0  0  0  0
    1.0708    1.6297    0.0038 O   0  0  0  0  0  0  0  0  0  0  0  0
    2.5704    0.1431   -0.7529 O   0  0  0  0  0  0  0  0  0  0  0  0
    0.8475    0.3903    0.6460 C   0  0  0  0  0  0  0  0  0  0  0  0
   -0.4563    0.0941    0.2005 C   0  0  0  0  0  0  0  0  0  0  0  0
    1.3832    1.7703    0.4900 C   0  0  0  0  0  0  0  0  0  0  0  0
   -1.2735    1.1842   -0.4017 C   0  0  0  0  0  0  0  0  0  0  0  0
    0.6404    2.7389   -0.3156 C   0  0  0  0  0  0  0  0  0  0  0  0
   -0.6409    2.4640   -0.7528 C   0  0  0  0  0  0  0  0  0  0  0  0
    1.6579   -0.6209    1.2078 C   0  0  0  0  0  0  0  0  0  0  0  0
   -0.9920   -1.2127    0.3373 C   0  0  0  0  0  0  0  0  0  0  0  0
    2.4308    2.1276    1.0223 O   0  0  0  0  0  0  0  0  0  0  0  0
   -2.4770    1.0584   -0.6032 O   0  0  0  0  0  0  0  0  0  0  0  0
    0.5438    4.9060   -1.3774 N   0  0  0  0  0  0  0  0  0  0  0  0
   -0.1658   -2.1985    0.8944 C   0  0  0  0  0  0  0  0  0  0  0  0
    1.1275   -1.9074    1.3298 C   0  0  0  0  0  0  0  0  0  0  0  0
    1.1916    3.9669   -0.6445 C   0  0  0  0  0  0  0  0  0  0  0  0
    2.9978   -0.3996    1.6006 N   0  0  0  0  0  0  0  0  0  0  0  0
   -2.2419   -1.5607   -0.2044 N   0  0  0  0  0  0  0  0  0  0  0  0
   -1.3405    3.4124   -1.5024 C   0  0  0  0  0  0  0  0  0  0  0  0
   -5.1375   -1.3083    0.0120 N   0  0  0  0  0  0  0  0  0  0  0  0
    3.1952   -0.3661   -1.5366 N   0  0  0  0  0  0  0  0  0  0  0  0
   -0.7081    4.6085   -1.7885 C   0  0  0  0  0  0  0  0  0  0  0  0
    4.0092   -1.0734    0.7684 C   0  0  0  0  0  0  0  0  0  0  0  0
   -3.0384   -2.6047    0.4421 C   0  0  0  0  0  0  0  0  0  0  0  0
    4.2976   -0.3425   -0.5659 C   0  0  0  0  0  0  0  0  0  0  0  0
   -4.4729   -2.6072   -0.1277 C   0  0  0  0  0  0  0  0  0  0  0  0
   -1.5201   -0.2071    0.0543 C   0  0  0  0  0  0  0  0  0  0  0  0
    0.5972    1.1217    0.0206 C   0  0  0  0  0  0  0  0  0  0  0  0
   -0.7397    1.0332    0.0308 C   0  0  0  0  0  0  0  0  0  0  0  0
   -2.5832   -0.3667   -0.5161 O   0  0  0  0  0  0  0  0  0  0  0  0
   -1.0081   -1.1300    0.8816 O   0  0  0  0  0  0  0  0  0  0  0  0
    1.5336   -0.0029   -0.0585 C   0  0  0  0  0  0  0  0  0  0  0  0
    2.6089   -0.0496    0.5095 O   0  0  0  0  0  0  0  0  0  0  0  0
    1.1465   -0.9430   -0.9332 O   0  0  0  0  0  0  0  0  0  0  0  0
    0.6257   -0.9489   -1.9016 H   0  0  0  0  0  0  0  0  0  0  0  0
   -1.5014   -1.4215   -0.7963 H   0  0  0  0  0  0  0  0  0  0  0  0
   -2.6469    0.4300    1.8646 H   0  0  0  0  0  0  0  0  0  0  0  0
    3.1252    0.8643   -0.3885 H   0  0  0  0  0  0  0  0  0  0  0  0
   -0.5051   -3.2269    0.9789 H   0  0  0  0  0  0  0  0  0  0  0  0
    1.7297   -2.7010    1.7664 H   0  0  0  0  0  0  0  0  0  0  0  0
    2.1931    4.2441   -0.3243 H   0  0  0  0  0  0  0  0  0  0  0  0
    3.1762    0.6170    1.6050 H   0  0  0  0  0  0  0  0  0  0  0  0
   -2.8261   -0.7236   -0.3774 H   0  0  0  0  0  0  0  0  0  0  0  0
   -2.3509    3.2241   -1.8521 H   0  0  0  0  0  0  0  0  0  0  0  0
   -6.1049   -1.3800   -0.2975 H   0  0  0  0  0  0  0  0  0  0  0  0
   -5.1541   -1.0231    0.9896 H   0  0  0  0  0  0  0  0  0  0  0  0
    3.5318   -0.0182   -2.4332 H   0  0  0  0  0  0  0  0  0  0  0  0
    2.8970   -1.3294   -1.6884 H   0  0  0  0  0  0  0  0  0  0  0  0
   -1.2039    5.3821   -2.3689 H   0  0  0  0  0  0  0  0  0  0  0  0
    4.9399   -1.0849    1.3483 H   0  0  0  0  0  0  0  0  0  0  0  0
    3.7537   -2.1239    0.5834 H   0  0  0  0  0  0  0  0  0  0  0  0
   -2.5962   -3.5903    0.2630 H   0  0  0  0  0  0  0  0  0  0  0  0
   -3.0833   -2.4327    1.5245 H   0  0  0  0  0  0  0  0  0  0  0  0
    4.5618    0.7018   -0.3656 H   0  0  0  0  0  0  0  0  0  0  0  0
    5.1697   -0.8146   -1.0321 H   0  0  0  0  0  0  0  0  0  0  0  0
   -4.4427   -2.8660   -1.1919 H   0  0  0  0  0  0  0  0  0  0  0  0
   -5.0635   -3.3742    0.3851 H   0  0  0  0  0  0  0  0  0  0  0  0
    1.0777    2.0918    0.0768 H   0  0  0  0  0  0  0  0  0  0  0  0
   -1.3437    1.9334    0.0182 H   0  0  0  0  0  0  0  0  0  0  0  0
   -1.6376   -1.8772    0.8172 H   0  0  0  0  0  0  0  0  0  0  0  0
    1.8684   -1.6038   -0.9011 H   0  0  0  0  0  0  0  0  0  0  0  0
  1  3  1  0
  3  2  2  0
  4  1  2  0
  5  1  1  0
  2  6  1  0
  6  7  2  0
  6  8  1  0
 24 16  1  0
 25 14  1  0
 26 32  1  0
 27 31  1  0
 28 25  2  0
 29 23  1  0
 30 24  1  0
 31 29  1  0
 32 30  1  0
 16 20  2  0
 14 13  2  0
 19 28  1  0
 10  9  2  0
 11  9  1  0
 12 10  1  0
 13 11  1  0
 14 12  1  0
 15  9  1  0
 16 10  1  0
 17 11  2  0
 18 12  2  0
 19 22  2  0
 20 21  1  0
 21 15  2  0
 22 13  1  0
 23 15  1  0
 33 35  1  0
 35 34  2  0
 36 33  2  0
 37 33  1  0
 34 38  1  0
 38 39  2  0
 38 40  1  0
  2 41  1  0
  3 42  1  0
  5 43  1  0
  8 44  1  0
 20 45  1  0
 21 46  1  0
 22 47  1  0
 23 48  1  0
 24 49  1  0
 25 50  1  0
 26 51  1  0
 26 52  1  0
 27 53  1  0
 27 54  1  0
 28 55  1  0
 29 56  1  0
 29 57  1  0
 30 58  1  0
 30 59  1  0
 31 60  1  0
 31 61  1  0
 32 62  1  0
 32 63  1  0
 34 64  1  0
 35 65  1  0
 37 66  1  0
 40 67  1  0
M  END
$$$$
