
     RDKit          3D

 67 67  0  0  0  0  0  0  0  0999 V2000
    1.3319    0.1103   -0.3669 C   0  0  0  0  0  0  0  0  0  0  0  0
   -0.7701   -0.9030    0.4798 C   0  0  0  0  0  0  0  0  0  0  0  0
    0.5667   -0.8865    0.3936 C   0  0  0  0  0  0  0  0  0  0  0  0
    0.9554    0.7987   -1.2938 O   0  0  0  0  0  0  0  0  0  0  0  0
    2.5967    0.1448    0.0830 O   0  0  0  0  0  0  0  0  0  0  0  0
   -1.6573    0.1172   -0.0832 C   0  0  0  0  0  0  0  0  0  0  0  0
   -2.6611   -0.1122   -0.7306 O   0  0  0  0  0  0  0  0  0  0  0  0
   -1.3092    1.3524    0.3045 O   0  0  0  0  0  0  0  0  0  0  0  0
    0.5737    0.3081    0.0726 C   0  0  0  0  0  0  0  0  0  0  0  0
   -0.7472    0.4120    0.5563 C   0  0  0  0  0  0  0  0  0  0  0  0
    1.2869    1.5404   -0.3659 C   0  0  0  0  0  0  0  0  0  0  0  0
   -1.4134    1.7484    0.5814 C   0  0  0  0  0  0  0  0  0  0  0  0
    0.5595    2.8053   -0.4611 C   0  0  0  0  0  0  0  0  0  0  0  0
   -0.7406    2.9150   -0.0077 C   0  0  0  0  0  0  0  0  0  0  0  0
    1.2402   -0.9442    0.0338 C   0  0  0  0  0  0  0  0  0  0  0  0
   -1.4464   -0.7435    0.9865 C   0  0  0  0  0  0  0  0  0  0  0  0
    2.4843    1.5314   -0.6380 O   0  0  0  0  0  0  0  0  0  0  0  0
   -2.5232    1.9149    1.0800 O   0  0  0  0  0  0  0  0  0  0  0  0
    0.5394    5.1347   -1.1004 N   0  0  0  0  0  0  0  0  0  0  0  0
   -0.7668   -1.9662    0.9659 C   0  0  0  0  0  0  0  0  0  0  0  0
    0.5372   -2.0684    0.4780 C   0  0  0  0  0  0  0  0  0  0  0  0
    1.1609    3.9347   -0.9944 C   0  0  0  0  0  0  0  0  0  0  0  0
    2.5139   -1.0857   -0.5530 N   0  0  0  0  0  0  0  0  0  0  0  0
   -2.7532   -0.6756    1.5107 N   0  0  0  0  0  0  0  0  0  0  0  0
   -1.4082    4.1391   -0.0977 C   0  0  0  0  0  0  0  0  0  0  0  0
   -4.4920   -0.1630   -0.8051 N   0  0  0  0  0  0  0  0  0  0  0  0
    5.8427   -2.8177   -0.0806 N   0  0  0  0  0  0  0  0  0  0  0  0
   -0.7309    5.2109   -0.6493 C   0  0  0  0  0  0  0  0  0  0  0  0
    3.4503   -2.0497    0.0259 C   0  0  0  0  0  0  0  0  0  0  0  0
   -3.7392   -1.6697    1.0678 C   0  0  0  0  0  0  0  0  0  0  0  0
    4.8473   -1.8815   -0.6088 C   0  0  0  0  0  0  0  0  0  0  0  0
   -4.1042   -1.5252   -0.4262 C   0  0  0  0  0  0  0  0  0  0  0  0
   -1.6529    0.0943    0.1631 C   0  0  0  0  0  0  0  0  0  0  0  0
    0.7464    0.4655    0.6984 C   0  0  0  0  0  0  0  0  0  0  0  0
   -0.5525    0.5486    1.0163 C   0  0  0  0  0  0  0  0  0  0  0  0
   -2.6616    0.7317   -0.0729 O   0  0  0  0  0  0  0  0  0  0  0  0
   -1.4850   -1.1745   -0.2358 O   0  0  0  0  0  0  0  0  0  0  0  0
    1.2497   -0.0045   -0.5990 C   0  0  0  0  0  0  0  0  0  0  0  0
    0.6696   -0.0302   -1.6654 O   0  0  0  0  0  0  0  0  0  0  0  0
    2.5297   -0.3896   -0.4714 O   0  0  0  0  0  0  0  0  0  0  0  0
   -1.2807   -1.7180    0.9783 H   0  0  0  0  0  0  0  0  0  0  0  0
    1.1508   -1.6659    0.8690 H   0  0  0  0  0  0  0  0  0  0  0  0
    3.0235    0.8270   -0.4768 H   0  0  0  0  0  0  0  0  0  0  0  0
   -1.9466    1.9353   -0.1569 H   0  0  0  0  0  0  0  0  0  0  0  0
   -1.2433   -2.8693    1.3375 H   0  0  0  0  0  0  0  0  0  0  0  0
    0.9851   -3.0574    0.4402 H   0  0  0  0  0  0  0  0  0  0  0  0
    2.1840    3.9148   -1.3632 H   0  0  0  0  0  0  0  0  0  0  0  0
    2.9482   -0.1568   -0.6678 H   0  0  0  0  0  0  0  0  0  0  0  0
   -3.1320    0.2715    1.3435 H   0  0  0  0  0  0  0  0  0  0  0  0
   -2.4291    4.2547    0.2532 H   0  0  0  0  0  0  0  0  0  0  0  0
   -4.8894   -0.1668   -1.7426 H   0  0  0  0  0  0  0  0  0  0  0  0
   -5.2161    0.1829   -0.1771 H   0  0  0  0  0  0  0  0  0  0  0  0
    5.9232   -2.7011    0.9288 H   0  0  0  0  0  0  0  0  0  0  0  0
    5.5297   -3.7748   -0.2372 H   0  0  0  0  0  0  0  0  0  0  0  0
   -1.2022    6.1855   -0.7447 H   0  0  0  0  0  0  0  0  0  0  0  0
    3.5245   -1.8985    1.1100 H   0  0  0  0  0  0  0  0  0  0  0  0
    3.1056   -3.0736   -0.1593 H   0  0  0  0  0  0  0  0  0  0  0  0
   -3.4148   -2.6932    1.2826 H   0  0  0  0  0  0  0  0  0  0  0  0
   -4.6460   -1.5110    1.6642 H   0  0  0  0  0  0  0  0  0  0  0  0
    5.2079   -0.8595   -0.4434 H   0  0  0  0  0  0  0  0  0  0  0  0
    4.7788   -2.0177   -1.6942 H   0  0  0  0  0  0  0  0  0  0  0  0
   -3.2544   -1.8262   -1.0479 H   0  0  0  0  0  0  0  0  0  0  0  0
   -4.9307   -2.2079   -0.6530 H   0  0  0  0  0  0  0  0  0  0  0  0
    1.5010    0.7951    1.4033 H   0  0  0  0  0  0  0  0  0  0  0  0
   -0.8642    0.9906    1.9551 H   0  0  0  0  0  0  0  0  0  0  0  0
   -2.2543   -1.3455   -0.8172 H   0  0  0  0  0  0  0  0  0  0  0  0
    2.7741   -0.6815   -1.3745 H   0  0  0  0  0  0  0  0  0  0  0  0
  1  3  1  0
  3  2  2  0
  4  1  2  0
  5  1  1  0
  2  6  1  0
  6  7  2  0
  6  8  1  0
 24 16  1  0
 25 14  1  0
 26 32  1  0
 27 31  1  0
 28 25  2  0
 29 23  1  0
 30 24  1  0
 31 29  1  0
 32 30  1  0
 16 20  2  0
 14 13  2  0
 19 28  1  0
 10  9  2  0
 11  9  1  0
 12 10  1  0
 13 11  1  0
 14 12  1  0
 15  9  1  0
 16 10  1  0
 17 11  2  0
 18 12  2  0
 19 22  2  0
 20 21  1  0
 21 15  2  0
 22 13  1  0
 23 15  1  0
 33 35  1  0
 35 34  2  0
 36 33  2  0
 37 33  1  0
 34 38  1  0
 38 39  2  0
 38 40  1  0
  2 41  1  0
  3 42  1  0
  5 43  1  0
  8 44  1  0
 20 45  1  0
 21 46  1  0
 22 47  1  0
 23 48  1  0
 24 49  1  0
 25 50  1  0
 26 51  1  0
 26 52  1  0
 27 53  1  0
 27 54  1  0
 28 55  1  0
 29 56  1  0
 29 57  1  0
 30 58  1  0
 30 59  1  0
 31 60  1  0
 31 61  1  0
 32 62  1  0
 32 63  1  0
 34 64  1  0
 35 65  1  0
 37 66  1  0
 40 67  1  0
M  END
$$$$
