
     RDKit          3D

 67 67  0  0  0  0  0  0  0  0999 V2000
    1.1568    0.7156    0.6085 C   0  0  0  0  0  0  0  0  0  0  0  0
   -0.4560   -1.1714    0.5880 C   0  0  0  0  0  0  0  0  0  0  0  0
    0.7923   -0.7031    0.7182 C   0  0  0  0  0  0  0  0  0  0  0  0
    0.4464    1.6880    0.7646 O   0  0  0  0  0  0  0  0  0  0  0  0
    2.4679    0.8230    0.3393 O   0  0  0  0  0  0  0  0  0  0  0  0
   -1.6195   -0.3605    0.2222 C   0  0  0  0  0  0  0  0  0  0  0  0
   -2.6982   -0.3956    0.7830 O   0  0  0  0  0  0  0  0  0  0  0  0
   -1.4049    0.3461   -0.8966 O   0  0  0  0  0  0  0  0  0  0  0  0
    0.6140    0.5528   -0.0093 C   0  0  0  0  0  0  0  0  0  0  0  0
   -0.7675    0.3175    0.1476 C   0  0  0  0  0  0  0  0  0  0  0  0
    1.1600    1.9026    0.3063 C   0  0  0  0  0  0  0  0  0  0  0  0
   -1.6451    1.4256    0.6211 C   0  0  0  0  0  0  0  0  0  0  0  0
    0.2409    3.0134    0.5563 C   0  0  0  0  0  0  0  0  0  0  0  0
   -1.1150    2.7933    0.7082 C   0  0  0  0  0  0  0  0  0  0  0  0
    1.4844   -0.4818   -0.4348 C   0  0  0  0  0  0  0  0  0  0  0  0
   -1.3204   -0.9614   -0.1133 C   0  0  0  0  0  0  0  0  0  0  0  0
    2.3676    2.1100    0.3790 O   0  0  0  0  0  0  0  0  0  0  0  0
   -2.8085    1.2240    0.9582 O   0  0  0  0  0  0  0  0  0  0  0  0
   -0.0992    5.3754    0.9179 N   0  0  0  0  0  0  0  0  0  0  0  0
   -0.4546   -1.9586   -0.5739 C   0  0  0  0  0  0  0  0  0  0  0  0
    0.9146   -1.7244   -0.7307 C   0  0  0  0  0  0  0  0  0  0  0  0
    0.7063    4.3131    0.6727 C   0  0  0  0  0  0  0  0  0  0  0  0
    2.8446   -0.2358   -0.7021 N   0  0  0  0  0  0  0  0  0  0  0  0
   -2.7107   -1.1875   -0.0668 N   0  0  0  0  0  0  0  0  0  0  0  0
   -1.9719    3.8646    0.9694 C   0  0  0  0  0  0  0  0  0  0  0  0
   -5.4130   -1.9732   -0.6478 N   0  0  0  0  0  0  0  0  0  0  0  0
    6.2901   -1.7615   -0.3833 N   0  0  0  0  0  0  0  0  0  0  0  0
   -1.4193    5.1286    1.0615 C   0  0  0  0  0  0  0  0  0  0  0  0
    3.8198   -1.2992   -0.4616 C   0  0  0  0  0  0  0  0  0  0  0  0
   -3.1929   -2.4988    0.3868 C   0  0  0  0  0  0  0  0  0  0  0  0
    5.2547   -0.7494   -0.6060 C   0  0  0  0  0  0  0  0  0  0  0  0
   -4.7272   -2.4619    0.5561 C   0  0  0  0  0  0  0  0  0  0  0  0
    1.2462   -0.3079    0.5219 C   0  0  0  0  0  0  0  0  0  0  0  0
   -0.6417    1.0546   -0.3395 C   0  0  0  0  0  0  0  0  0  0  0  0
    0.6601    0.9068   -0.0600 C   0  0  0  0  0  0  0  0  0  0  0  0
    0.6927   -1.1734    1.1694 O   0  0  0  0  0  0  0  0  0  0  0  0
    2.5660   -0.3321    0.2758 O   0  0  0  0  0  0  0  0  0  0  0  0
   -1.6514    0.0029   -0.2008 C   0  0  0  0  0  0  0  0  0  0  0  0
   -2.7386    0.1449    0.3256 O   0  0  0  0  0  0  0  0  0  0  0  0
   -1.2946   -1.1203   -0.8396 O   0  0  0  0  0  0  0  0  0  0  0  0
   -0.6758   -2.2161    0.7718 H   0  0  0  0  0  0  0  0  0  0  0  0
    1.6041   -1.3797    0.9595 H   0  0  0  0  0  0  0  0  0  0  0  0
    2.6149    1.7906    0.2862 H   0  0  0  0  0  0  0  0  0  0  0  0
   -2.2281    0.8631   -1.0136 H   0  0  0  0  0  0  0  0  0  0  0  0
   -0.8343   -2.9344   -0.8644 H   0  0  0  0  0  0  0  0  0  0  0  0
    1.5197   -2.5322   -1.1333 H   0  0  0  0  0  0  0  0  0  0  0  0
    1.7625    4.5519    0.5713 H   0  0  0  0  0  0  0  0  0  0  0  0
    3.1327    0.6547   -0.2680 H   0  0  0  0  0  0  0  0  0  0  0  0
   -3.1678   -0.4245    0.4576 H   0  0  0  0  0  0  0  0  0  0  0  0
   -3.0398    3.7194    1.0993 H   0  0  0  0  0  0  0  0  0  0  0  0
   -5.2019   -2.6012   -1.4233 H   0  0  0  0  0  0  0  0  0  0  0  0
   -4.9501   -1.0982   -0.9154 H   0  0  0  0  0  0  0  0  0  0  0  0
    6.1759   -2.5224   -1.0517 H   0  0  0  0  0  0  0  0  0  0  0  0
    6.1803   -2.1706    0.5436 H   0  0  0  0  0  0  0  0  0  0  0  0
   -2.0371    6.0004    1.2612 H   0  0  0  0  0  0  0  0  0  0  0  0
    3.6844   -2.1104   -1.1860 H   0  0  0  0  0  0  0  0  0  0  0  0
    3.6890   -1.7085    0.5479 H   0  0  0  0  0  0  0  0  0  0  0  0
   -2.9453   -3.2716   -0.3494 H   0  0  0  0  0  0  0  0  0  0  0  0
   -2.7337   -2.7662    1.3457 H   0  0  0  0  0  0  0  0  0  0  0  0
    5.4098    0.0700    0.1053 H   0  0  0  0  0  0  0  0  0  0  0  0
    5.3880   -0.3242   -1.6075 H   0  0  0  0  0  0  0  0  0  0  0  0
   -4.9867   -1.7979    1.3884 H   0  0  0  0  0  0  0  0  0  0  0  0
   -5.0973   -3.4615    0.8063 H   0  0  0  0  0  0  0  0  0  0  0  0
   -1.0285    2.0071   -0.6807 H   0  0  0  0  0  0  0  0  0  0  0  0
    1.3476    1.7288   -0.2231 H   0  0  0  0  0  0  0  0  0  0  0  0
    2.8648   -1.1651    0.6972 H   0  0  0  0  0  0  0  0  0  0  0  0
   -2.0224   -1.7461   -0.6460 H   0  0  0  0  0  0  0  0  0  0  0  0
  1  3  1  0
  3  2  2  0
  4  1  2  0
  5  1  1  0
  2  6  1  0
  6  7  2  0
  6  8  1  0
 24 16  1  0
 25 14  1  0
 26 32  1  0
 27 31  1  0
 28 25  2  0
 29 23  1  0
 30 24  1  0
 31 29  1  0
 32 30  1  0
 16 20  2  0
 14 13  2  0
 19 28  1  0
 10  9  2  0
 11  9  1  0
 12 10  1  0
 13 11  1  0
 14 12  1  0
 15  9  1  0
 16 10  1  0
 17 11  2  0
 18 12  2  0
 19 22  2  0
 20 21  1  0
 21 15  2  0
 22 13  1  0
 23 15  1  0
 33 35  1  0
 35 34  2  0
 36 33  2  0
 37 33  1  0
 34 38  1  0
 38 39  2  0
 38 40  1  0
  2 41  1  0
  3 42  1  0
  5 43  1  0
  8 44  1  0
 20 45  1  0
 21 46  1  0
 22 47  1  0
 23 48  1  0
 24 49  1  0
 25 50  1  0
 26 51  1  0
 26 52  1  0
 27 53  1  0
 27 54  1  0
 28 55  1  0
 29 56  1  0
 29 57  1  0
 30 58  1  0
 30 59  1  0
 31 60  1  0
 31 61  1  0
 32 62  1  0
 32 63  1  0
 34 64  1  0
 35 65  1  0
 37 66  1  0
 40 67  1  0
M  END
$$$$
