
     RDKit          3D

 27 29  0  0  0  0  0  0  0  0999 V2000
   -0.1742   -1.2308   -0.0492 C   0  0  0  0  0  0  0  0  0  0  0  0
    1.1739   -0.6670   -0.2770 C   0  0  0  0  0  0  0  0  0  0  0  0
   -1.3158   -0.3352    0.2369 C   0  0  0  0  0  0  0  0  0  0  0  0
    1.3644    0.7199   -0.2203 C   0  0  0  0  0  0  0  0  0  0  0  0
   -1.1138    1.0502    0.2912 C   0  0  0  0  0  0  0  0  0  0  0  0
    0.2370    1.6744    0.0670 C   0  0  0  0  0  0  0  0  0  0  0  0
   -0.3467   -2.4492   -0.0980 O   0  0  0  0  0  0  0  0  0  0  0  0
    2.2615   -1.5116   -0.5490 C   0  0  0  0  0  0  0  0  0  0  0  0
   -2.5977   -0.8639    0.4539 C   0  0  0  0  0  0  0  0  0  0  0  0
    2.6526    1.2397   -0.4392 C   0  0  0  0  0  0  0  0  0  0  0  0
   -2.2098    1.8878    0.5644 C   0  0  0  0  0  0  0  0  0  0  0  0
    2.1534   -2.8749   -0.6203 O   0  0  0  0  0  0  0  0  0  0  0  0
   -2.8725   -2.2050    0.4170 O   0  0  0  0  0  0  0  0  0  0  0  0
    3.7280    0.3921   -0.7090 C   0  0  0  0  0  0  0  0  0  0  0  0
   -3.4810    1.3531    0.7789 C   0  0  0  0  0  0  0  0  0  0  0  0
    3.5317   -0.9851   -0.7639 C   0  0  0  0  0  0  0  0  0  0  0  0
   -3.6747   -0.0245    0.7235 C   0  0  0  0  0  0  0  0  0  0  0  0
    0.1549    2.3686   -0.7793 H   0  0  0  0  0  0  0  0  0  0  0  0
    0.4989    2.2501    0.9642 H   0  0  0  0  0  0  0  0  0  0  0  0
    2.8255    2.3140   -0.4003 H   0  0  0  0  0  0  0  0  0  0  0  0
   -2.0778    2.9676    0.6117 H   0  0  0  0  0  0  0  0  0  0  0  0
    1.2143   -3.1103   -0.4510 H   0  0  0  0  0  0  0  0  0  0  0  0
   -2.0336   -2.6773    0.2193 H   0  0  0  0  0  0  0  0  0  0  0  0
    4.7201    0.8045   -0.8768 H   0  0  0  0  0  0  0  0  0  0  0  0
   -4.3217    2.0098    0.9894 H   0  0  0  0  0  0  0  0  0  0  0  0
    4.3655   -1.6501   -0.9736 H   0  0  0  0  0  0  0  0  0  0  0  0
   -4.6623   -0.4468    0.8896 H   0  0  0  0  0  0  0  0  0  0  0  0
  2  1  1  0
  3  1  1  0
  4  2  2  0
  5  3  2  0
  6  5  1  0
  7  1  2  0
  8  2  1  0
  9  3  1  0
 10  4  1  0
 11  5  1  0
 12  8  1  0
 13  9  1  0
 14 16  1  0
 15 17  1  0
 16  8  2  0
 17  9  2  0
  4  6  1  0
 11 15  2  0
 10 14  2  0
  6 18  1  0
  6 19  1  0
 10 20  1  0
 11 21  1  0
 12 22  1  0
 13 23  1  0
 14 24  1  0
 15 25  1  0
 16 26  1  0
 17 27  1  0
M  END
$$$$
