
     RDKit          3D

 27 29  0  0  0  0  0  0  0  0999 V2000
    0.0715    1.2305    0.1689 C   0  0  0  0  0  0  0  0  0  0  0  0
   -1.2363    0.5471    0.2684 C   0  0  0  0  0  0  0  0  0  0  0  0
    1.2945    0.4549   -0.1309 C   0  0  0  0  0  0  0  0  0  0  0  0
   -1.3109   -0.8389    0.0773 C   0  0  0  0  0  0  0  0  0  0  0  0
    1.2082   -0.9307   -0.3202 C   0  0  0  0  0  0  0  0  0  0  0  0
   -0.0972   -1.6740   -0.2297 C   0  0  0  0  0  0  0  0  0  0  0  0
    0.1422    2.4486    0.3360 O   0  0  0  0  0  0  0  0  0  0  0  0
   -2.4007    1.2774    0.5526 C   0  0  0  0  0  0  0  0  0  0  0  0
    2.5387    1.0975   -0.2267 C   0  0  0  0  0  0  0  0  0  0  0  0
   -2.5621   -1.4733    0.1754 C   0  0  0  0  0  0  0  0  0  0  0  0
    2.3805   -1.6534   -0.6045 C   0  0  0  0  0  0  0  0  0  0  0  0
   -2.4069    2.6323    0.7515 O   0  0  0  0  0  0  0  0  0  0  0  0
    2.7019    2.4462   -0.0546 O   0  0  0  0  0  0  0  0  0  0  0  0
   -3.7147   -0.7389    0.4584 C   0  0  0  0  0  0  0  0  0  0  0  0
    3.6133   -1.0059   -0.6978 C   0  0  0  0  0  0  0  0  0  0  0  0
   -3.6333    0.6381    0.6471 C   0  0  0  0  0  0  0  0  0  0  0  0
    3.6920    0.3712   -0.5086 C   0  0  0  0  0  0  0  0  0  0  0  0
   -0.2669   -2.1814   -1.1881 H   0  0  0  0  0  0  0  0  0  0  0  0
   -0.0013   -2.4360    0.5544 H   0  0  0  0  0  0  0  0  0  0  0  0
   -2.6454   -2.5493    0.0309 H   0  0  0  0  0  0  0  0  0  0  0  0
    2.3387   -2.7309   -0.7555 H   0  0  0  0  0  0  0  0  0  0  0  0
   -1.4827    2.9532    0.6575 H   0  0  0  0  0  0  0  0  0  0  0  0
    1.8188    2.8329    0.1366 H   0  0  0  0  0  0  0  0  0  0  0  0
   -4.6772   -1.2393    0.5320 H   0  0  0  0  0  0  0  0  0  0  0  0
    4.5138   -1.5742   -0.9181 H   0  0  0  0  0  0  0  0  0  0  0  0
   -4.5275    1.2153    0.8678 H   0  0  0  0  0  0  0  0  0  0  0  0
    4.6492    0.8810   -0.5801 H   0  0  0  0  0  0  0  0  0  0  0  0
  2  1  1  0
  3  1  1  0
  4  2  2  0
  5  3  2  0
  6  5  1  0
  7  1  2  0
  8  2  1  0
  9  3  1  0
 10  4  1  0
 11  5  1  0
 12  8  1  0
 13  9  1  0
 14 16  1  0
 15 17  1  0
 16  8  2  0
 17  9  2  0
  4  6  1  0
 11 15  2  0
 10 14  2  0
  6 18  1  0
  6 19  1  0
 10 20  1  0
 11 21  1  0
 12 22  1  0
 13 23  1  0
 14 24  1  0
 15 25  1  0
 16 26  1  0
 17 27  1  0
M  END
$$$$
