
     RDKit          3D

 27 29  0  0  0  0  0  0  0  0999 V2000
    0.1346    1.2291    0.1372 C   0  0  0  0  0  0  0  0  0  0  0  0
   -1.1871    0.6667   -0.2148 C   0  0  0  0  0  0  0  0  0  0  0  0
    1.2967    0.3342    0.3265 C   0  0  0  0  0  0  0  0  0  0  0  0
   -1.3330   -0.7184   -0.3680 C   0  0  0  0  0  0  0  0  0  0  0  0
    1.1394   -1.0493    0.1708 C   0  0  0  0  0  0  0  0  0  0  0  0
   -0.1832   -1.6721   -0.1866 C   0  0  0  0  0  0  0  0  0  0  0  0
    0.2679    2.4459    0.2730 O   0  0  0  0  0  0  0  0  0  0  0  0
   -2.2939    1.5106   -0.3958 C   0  0  0  0  0  0  0  0  0  0  0  0
    2.5538    0.8617    0.6606 C   0  0  0  0  0  0  0  0  0  0  0  0
   -2.5965   -1.2370   -0.7029 C   0  0  0  0  0  0  0  0  0  0  0  0
    2.2544   -1.8863    0.3543 C   0  0  0  0  0  0  0  0  0  0  0  0
   -2.2292    2.8720   -0.2633 O   0  0  0  0  0  0  0  0  0  0  0  0
    2.7848    2.2009    0.8294 O   0  0  0  0  0  0  0  0  0  0  0  0
   -3.6914   -0.3901   -0.8809 C   0  0  0  0  0  0  0  0  0  0  0  0
    3.5005   -1.3527    0.6864 C   0  0  0  0  0  0  0  0  0  0  0  0
   -3.5394    0.9853   -0.7271 C   0  0  0  0  0  0  0  0  0  0  0  0
    3.6499    0.0230    0.8396 C   0  0  0  0  0  0  0  0  0  0  0  0
   -0.0541   -2.2314   -1.1222 H   0  0  0  0  0  0  0  0  0  0  0  0
   -0.4511   -2.3810    0.6075 H   0  0  0  0  0  0  0  0  0  0  0  0
   -2.7347   -2.3098   -0.8274 H   0  0  0  0  0  0  0  0  0  0  0  0
    2.1570   -2.9646    0.2387 H   0  0  0  0  0  0  0  0  0  0  0  0
   -1.3035    3.1067   -0.0305 H   0  0  0  0  0  0  0  0  0  0  0  0
    1.9366    2.6730    0.6756 H   0  0  0  0  0  0  0  0  0  0  0  0
   -4.6641   -0.8015   -1.1398 H   0  0  0  0  0  0  0  0  0  0  0  0
    4.3563   -2.0089    0.8261 H   0  0  0  0  0  0  0  0  0  0  0  0
   -4.3885    1.6498   -0.8645 H   0  0  0  0  0  0  0  0  0  0  0  0
    4.6179    0.4442    1.0982 H   0  0  0  0  0  0  0  0  0  0  0  0
  2  1  1  0
  3  1  1  0
  4  2  2  0
  5  3  2  0
  6  5  1  0
  7  1  2  0
  8  2  1  0
  9  3  1  0
 10  4  1  0
 11  5  1  0
 12  8  1  0
 13  9  1  0
 14 16  1  0
 15 17  1  0
 16  8  2  0
 17  9  2  0
  4  6  1  0
 11 15  2  0
 10 14  2  0
  6 18  1  0
  6 19  1  0
 10 20  1  0
 11 21  1  0
 12 22  1  0
 13 23  1  0
 14 24  1  0
 15 25  1  0
 16 26  1  0
 17 27  1  0
M  END
$$$$
