
     RDKit          3D

 27 29  0  0  0  0  0  0  0  0999 V2000
   -0.1784    1.0745   -0.6010 C   0  0  0  0  0  0  0  0  0  0  0  0
    1.1866    0.5206   -0.4698 C   0  0  0  0  0  0  0  0  0  0  0  0
   -1.3318    0.3543   -0.0196 C   0  0  0  0  0  0  0  0  0  0  0  0
    1.3817   -0.6899    0.2081 C   0  0  0  0  0  0  0  0  0  0  0  0
   -1.1251   -0.8554    0.6563 C   0  0  0  0  0  0  0  0  0  0  0  0
    0.2427   -1.4618    0.8177 C   0  0  0  0  0  0  0  0  0  0  0  0
   -0.3550    2.1382   -1.1960 O   0  0  0  0  0  0  0  0  0  0  0  0
    2.2855    1.1992   -1.0194 C   0  0  0  0  0  0  0  0  0  0  0  0
   -2.6298    0.8747   -0.1406 C   0  0  0  0  0  0  0  0  0  0  0  0
    2.6859   -1.2028    0.3239 C   0  0  0  0  0  0  0  0  0  0  0  0
   -2.2326   -1.5276    1.2033 C   0  0  0  0  0  0  0  0  0  0  0  0
    2.1738    2.3853   -1.6948 O   0  0  0  0  0  0  0  0  0  0  0  0
   -2.9101    2.0496   -0.7858 O   0  0  0  0  0  0  0  0  0  0  0  0
    3.7726   -0.5210   -0.2258 C   0  0  0  0  0  0  0  0  0  0  0  0
   -3.5196   -1.0026    1.0780 C   0  0  0  0  0  0  0  0  0  0  0  0
    3.5716    0.6814   -0.8981 C   0  0  0  0  0  0  0  0  0  0  0  0
   -3.7179    0.2001    0.4051 C   0  0  0  0  0  0  0  0  0  0  0  0
    0.2276   -2.4612    0.3639 H   0  0  0  0  0  0  0  0  0  0  0  0
    0.4419   -1.5711    1.8915 H   0  0  0  0  0  0  0  0  0  0  0  0
    2.8627   -2.1418    0.8462 H   0  0  0  0  0  0  0  0  0  0  0  0
   -2.0971   -2.4693    1.7330 H   0  0  0  0  0  0  0  0  0  0  0  0
    1.2232    2.6348   -1.7068 H   0  0  0  0  0  0  0  0  0  0  0  0
   -2.0621    2.4179   -1.1195 H   0  0  0  0  0  0  0  0  0  0  0  0
    4.7770   -0.9265   -0.1305 H   0  0  0  0  0  0  0  0  0  0  0  0
   -4.3691   -1.5304    1.5047 H   0  0  0  0  0  0  0  0  0  0  0  0
    4.4140    1.2168   -1.3283 H   0  0  0  0  0  0  0  0  0  0  0  0
   -4.7179    0.6138    0.3043 H   0  0  0  0  0  0  0  0  0  0  0  0
  2  1  1  0
  3  1  1  0
  4  2  2  0
  5  3  2  0
  6  5  1  0
  7  1  2  0
  8  2  1  0
  9  3  1  0
 10  4  1  0
 11  5  1  0
 12  8  1  0
 13  9  1  0
 14 16  1  0
 15 17  1  0
 16  8  2  0
 17  9  2  0
  4  6  1  0
 11 15  2  0
 10 14  2  0
  6 18  1  0
  6 19  1  0
 10 20  1  0
 11 21  1  0
 12 22  1  0
 13 23  1  0
 14 24  1  0
 15 25  1  0
 16 26  1  0
 17 27  1  0
M  END
$$$$
