
     RDKit          3D

 31 32  0  0  0  0  0  0  0  0999 V2000
    0.6801    1.6001   -1.6838 S   0  0  0  0  0  0  0  0  0  0  0  0
   -0.6572    0.6734   -1.3420 N   0  0  0  0  0  0  0  0  0  0  0  0
   -1.3281    0.6496   -0.1145 C   0  0  0  0  0  0  0  0  0  0  0  0
    1.8991    1.0247   -0.5315 C   0  0  0  0  0  0  0  0  0  0  0  0
    0.3797    2.9881   -1.4160 O   0  0  0  0  0  0  0  0  0  0  0  0
    1.0992    1.1756   -3.0051 O   0  0  0  0  0  0  0  0  0  0  0  0
   -0.9576    1.2654    0.8717 O   0  0  0  0  0  0  0  0  0  0  0  0
   -2.5363   -0.2201   -0.0633 C   0  0  0  0  0  0  0  0  0  0  0  0
    2.6764   -0.0916   -0.8485 C   0  0  0  0  0  0  0  0  0  0  0  0
    2.1333    1.7344    0.6467 C   0  0  0  0  0  0  0  0  0  0  0  0
    3.8567    0.1351    1.2652 C   0  0  0  0  0  0  0  0  0  0  0  0
    4.9217   -0.2281    2.0964 N   0  0  0  0  0  0  0  0  0  0  0  0
    3.1207    1.2939    1.5320 C   0  0  0  0  0  0  0  0  0  0  0  0
    3.6618   -0.5207    0.0453 C   0  0  0  0  0  0  0  0  0  0  0  0
   -2.9472   -0.7031    1.1874 C   0  0  0  0  0  0  0  0  0  0  0  0
   -3.2624   -0.5732   -1.2098 C   0  0  0  0  0  0  0  0  0  0  0  0
   -4.3766   -1.4100   -1.1022 C   0  0  0  0  0  0  0  0  0  0  0  0
   -4.0600   -1.5398    1.2892 C   0  0  0  0  0  0  0  0  0  0  0  0
   -4.7712   -1.8948    0.1443 C   0  0  0  0  0  0  0  0  0  0  0  0
   -0.8599    0.0101   -2.0803 H   0  0  0  0  0  0  0  0  0  0  0  0
    2.5411   -0.6178   -1.7902 H   0  0  0  0  0  0  0  0  0  0  0  0
    1.5552    2.6257    0.8830 H   0  0  0  0  0  0  0  0  0  0  0  0
    4.8138    0.0745    3.0596 H   0  0  0  0  0  0  0  0  0  0  0  0
    5.1894   -1.2045    2.0257 H   0  0  0  0  0  0  0  0  0  0  0  0
    3.3092    1.8674    2.4361 H   0  0  0  0  0  0  0  0  0  0  0  0
    4.2845   -1.3706   -0.2224 H   0  0  0  0  0  0  0  0  0  0  0  0
   -2.4005   -0.4304    2.0888 H   0  0  0  0  0  0  0  0  0  0  0  0
   -3.0050   -0.1826   -2.1901 H   0  0  0  0  0  0  0  0  0  0  0  0
   -4.9456   -1.6763   -1.9903 H   0  0  0  0  0  0  0  0  0  0  0  0
   -4.3733   -1.9112    2.2622 H   0  0  0  0  0  0  0  0  0  0  0  0
   -5.6410   -2.5429    0.2252 H   0  0  0  0  0  0  0  0  0  0  0  0
  2  1  1  0
  3  2  1  0
  4  1  1  0
  5  1  2  0
  6  1  2  0
  7  3  2  0
  8  3  1  0
  9  4  2  0
 10  4  1  0
 11 13  1  0
 12 11  1  0
 13 10  2  0
 14  9  1  0
 15  8  2  0
 16  8  1  0
 17 16  2  0
 18 15  1  0
 19 17  1  0
 11 14  2  0
 19 18  2  0
  2 20  1  0
  9 21  1  0
 10 22  1  0
 12 23  1  0
 12 24  1  0
 13 25  1  0
 14 26  1  0
 15 27  1  0
 16 28  1  0
 17 29  1  0
 18 30  1  0
 19 31  1  0
M  END
$$$$
