
     RDKit          3D

 31 32  0  0  0  0  0  0  0  0999 V2000
   -0.6411    2.1042    0.4701 S   0  0  0  0  0  0  0  0  0  0  0  0
    0.5972    0.9905    0.3547 N   0  0  0  0  0  0  0  0  0  0  0  0
    1.9422    1.3420    0.5406 C   0  0  0  0  0  0  0  0  0  0  0  0
   -2.0258    1.0609    0.0528 C   0  0  0  0  0  0  0  0  0  0  0  0
   -0.5108    3.0675   -0.6001 O   0  0  0  0  0  0  0  0  0  0  0  0
   -0.8074    2.4869    1.8542 O   0  0  0  0  0  0  0  0  0  0  0  0
    2.3196    2.4716    0.8052 O   0  0  0  0  0  0  0  0  0  0  0  0
    2.9200    0.2292    0.3824 C   0  0  0  0  0  0  0  0  0  0  0  0
   -2.4387    0.9559   -1.2765 C   0  0  0  0  0  0  0  0  0  0  0  0
   -2.6786    0.3476    1.0598 C   0  0  0  0  0  0  0  0  0  0  0  0
   -4.2059   -0.5683   -0.5948 C   0  0  0  0  0  0  0  0  0  0  0  0
   -5.1951   -1.4964   -0.9379 N   0  0  0  0  0  0  0  0  0  0  0  0
   -3.7506   -0.4832    0.7253 C   0  0  0  0  0  0  0  0  0  0  0  0
   -3.5123    0.1208   -1.5956 C   0  0  0  0  0  0  0  0  0  0  0  0
    4.2385    0.5572    0.0358 C   0  0  0  0  0  0  0  0  0  0  0  0
    2.5693   -1.1172    0.5587 C   0  0  0  0  0  0  0  0  0  0  0  0
    3.5264   -2.1191    0.3758 C   0  0  0  0  0  0  0  0  0  0  0  0
    5.1902   -0.4474   -0.1470 C   0  0  0  0  0  0  0  0  0  0  0  0
    4.8325   -1.7841    0.0200 C   0  0  0  0  0  0  0  0  0  0  0  0
    0.3433    0.1020   -0.0588 H   0  0  0  0  0  0  0  0  0  0  0  0
   -1.9321    1.5075   -2.0657 H   0  0  0  0  0  0  0  0  0  0  0  0
   -2.3583    0.4243    2.0967 H   0  0  0  0  0  0  0  0  0  0  0  0
   -5.6775   -1.2812   -1.8056 H   0  0  0  0  0  0  0  0  0  0  0  0
   -5.8446   -1.7023   -0.1846 H   0  0  0  0  0  0  0  0  0  0  0  0
   -4.2356   -1.0611    1.5085 H   0  0  0  0  0  0  0  0  0  0  0  0
   -3.8100    0.0175   -2.6364 H   0  0  0  0  0  0  0  0  0  0  0  0
    4.5286    1.5988   -0.0959 H   0  0  0  0  0  0  0  0  0  0  0  0
    1.5719   -1.4098    0.8728 H   0  0  0  0  0  0  0  0  0  0  0  0
    3.2575   -3.1631    0.5211 H   0  0  0  0  0  0  0  0  0  0  0  0
    6.2107   -0.1855   -0.4169 H   0  0  0  0  0  0  0  0  0  0  0  0
    5.5762   -2.5656   -0.1186 H   0  0  0  0  0  0  0  0  0  0  0  0
  2  1  1  0
  3  2  1  0
  4  1  1  0
  5  1  2  0
  6  1  2  0
  7  3  2  0
  8  3  1  0
  9  4  2  0
 10  4  1  0
 11 13  1  0
 12 11  1  0
 13 10  2  0
 14  9  1  0
 15  8  2  0
 16  8  1  0
 17 16  2  0
 18 15  1  0
 19 17  1  0
 11 14  2  0
 19 18  2  0
  2 20  1  0
  9 21  1  0
 10 22  1  0
 12 23  1  0
 12 24  1  0
 13 25  1  0
 14 26  1  0
 15 27  1  0
 16 28  1  0
 17 29  1  0
 18 30  1  0
 19 31  1  0
M  END
$$$$
