
     RDKit          3D

 31 32  0  0  0  0  0  0  0  0999 V2000
   -0.7128   -1.9757    1.1940 S   0  0  0  0  0  0  0  0  0  0  0  0
    0.6935   -1.3767    0.5393 N   0  0  0  0  0  0  0  0  0  0  0  0
    1.2654   -0.1402    0.8588 C   0  0  0  0  0  0  0  0  0  0  0  0
   -1.9599   -0.9195    0.5062 C   0  0  0  0  0  0  0  0  0  0  0  0
   -0.6930   -1.8243    2.6305 O   0  0  0  0  0  0  0  0  0  0  0  0
   -0.8735   -3.2851    0.5923 O   0  0  0  0  0  0  0  0  0  0  0  0
    0.7649    0.6556    1.6371 O   0  0  0  0  0  0  0  0  0  0  0  0
    2.5505    0.1732    0.1729 C   0  0  0  0  0  0  0  0  0  0  0  0
   -2.3617    0.2219    1.2008 C   0  0  0  0  0  0  0  0  0  0  0  0
   -2.5587   -1.2536   -0.7105 C   0  0  0  0  0  0  0  0  0  0  0  0
   -3.9987    0.6974   -0.5322 C   0  0  0  0  0  0  0  0  0  0  0  0
   -4.9091    1.5815   -1.1216 N   0  0  0  0  0  0  0  0  0  0  0  0
   -3.5576   -0.4286   -1.2351 C   0  0  0  0  0  0  0  0  0  0  0  0
   -3.3586    1.0402    0.6630 C   0  0  0  0  0  0  0  0  0  0  0  0
    3.4037    1.1083    0.7771 C   0  0  0  0  0  0  0  0  0  0  0  0
    2.9353   -0.4273   -1.0345 C   0  0  0  0  0  0  0  0  0  0  0  0
    4.1630   -0.1018   -1.6184 C   0  0  0  0  0  0  0  0  0  0  0  0
    4.6292    1.4289    0.1906 C   0  0  0  0  0  0  0  0  0  0  0  0
    5.0087    0.8216   -1.0047 C   0  0  0  0  0  0  0  0  0  0  0  0
    1.1698   -2.0679   -0.0268 H   0  0  0  0  0  0  0  0  0  0  0  0
   -1.8904    0.4936    2.1438 H   0  0  0  0  0  0  0  0  0  0  0  0
   -2.2541   -2.1416   -1.2587 H   0  0  0  0  0  0  0  0  0  0  0  0
   -5.3935    2.1752   -0.4550 H   0  0  0  0  0  0  0  0  0  0  0  0
   -5.5471    1.1404   -1.7765 H   0  0  0  0  0  0  0  0  0  0  0  0
   -3.9955   -0.6759   -2.1988 H   0  0  0  0  0  0  0  0  0  0  0  0
   -3.6333    1.9499    1.1912 H   0  0  0  0  0  0  0  0  0  0  0  0
    3.1181    1.5891    1.7117 H   0  0  0  0  0  0  0  0  0  0  0  0
    2.2885   -1.1237   -1.5588 H   0  0  0  0  0  0  0  0  0  0  0  0
    4.4584   -0.5623   -2.5587 H   0  0  0  0  0  0  0  0  0  0  0  0
    5.2860    2.1533    0.6667 H   0  0  0  0  0  0  0  0  0  0  0  0
    5.9625    1.0740   -1.4626 H   0  0  0  0  0  0  0  0  0  0  0  0
  2  1  1  0
  3  2  1  0
  4  1  1  0
  5  1  2  0
  6  1  2  0
  7  3  2  0
  8  3  1  0
  9  4  2  0
 10  4  1  0
 11 13  1  0
 12 11  1  0
 13 10  2  0
 14  9  1  0
 15  8  2  0
 16  8  1  0
 17 16  2  0
 18 15  1  0
 19 17  1  0
 11 14  2  0
 19 18  2  0
  2 20  1  0
  9 21  1  0
 10 22  1  0
 12 23  1  0
 12 24  1  0
 13 25  1  0
 14 26  1  0
 15 27  1  0
 16 28  1  0
 17 29  1  0
 18 30  1  0
 19 31  1  0
M  END
$$$$
