
     RDKit          3D

 31 32  0  0  0  0  0  0  0  0999 V2000
   -0.7451   -0.7939   -2.2725 S   0  0  0  0  0  0  0  0  0  0  0  0
    0.6764   -0.3083   -1.5593 N   0  0  0  0  0  0  0  0  0  0  0  0
    1.2457   -0.8932   -0.4228 C   0  0  0  0  0  0  0  0  0  0  0  0
   -1.9742   -0.3212   -1.0852 C   0  0  0  0  0  0  0  0  0  0  0  0
   -0.7543   -2.2301   -2.4285 O   0  0  0  0  0  0  0  0  0  0  0  0
   -0.8978    0.0742   -3.4237 O   0  0  0  0  0  0  0  0  0  0  0  0
    0.7320   -1.8125    0.1942 O   0  0  0  0  0  0  0  0  0  0  0  0
    2.5458   -0.3142    0.0188 C   0  0  0  0  0  0  0  0  0  0  0  0
   -2.5490    0.9500   -1.1498 C   0  0  0  0  0  0  0  0  0  0  0  0
   -2.3864   -1.2337   -0.1135 C   0  0  0  0  0  0  0  0  0  0  0  0
   -3.9858    0.3909    0.7302 C   0  0  0  0  0  0  0  0  0  0  0  0
   -4.8809    0.7974    1.7259 N   0  0  0  0  0  0  0  0  0  0  0  0
   -3.3692   -0.8620    0.8076 C   0  0  0  0  0  0  0  0  0  0  0  0
   -3.5341    1.3074   -0.2250 C   0  0  0  0  0  0  0  0  0  0  0  0
    3.3894   -1.1191    0.7984 C   0  0  0  0  0  0  0  0  0  0  0  0
    2.9533    0.9852   -0.3157 C   0  0  0  0  0  0  0  0  0  0  0  0
    4.1938    1.4630    0.1166 C   0  0  0  0  0  0  0  0  0  0  0  0
    4.6279   -0.6376    1.2265 C   0  0  0  0  0  0  0  0  0  0  0  0
    5.0298    0.6516    0.8828 C   0  0  0  0  0  0  0  0  0  0  0  0
    1.1620    0.3819   -2.1188 H   0  0  0  0  0  0  0  0  0  0  0  0
   -2.2362    1.6677   -1.9041 H   0  0  0  0  0  0  0  0  0  0  0  0
   -1.9337   -2.2217   -0.0510 H   0  0  0  0  0  0  0  0  0  0  0  0
   -5.3769    0.0298    2.1689 H   0  0  0  0  0  0  0  0  0  0  0  0
   -5.5068    1.5430    1.4382 H   0  0  0  0  0  0  0  0  0  0  0  0
   -3.6517   -1.5653    1.5870 H   0  0  0  0  0  0  0  0  0  0  0  0
   -3.9529    2.3100   -0.2595 H   0  0  0  0  0  0  0  0  0  0  0  0
    3.0863   -2.1286    1.0728 H   0  0  0  0  0  0  0  0  0  0  0  0
    2.3150    1.6574   -0.8805 H   0  0  0  0  0  0  0  0  0  0  0  0
    4.5069    2.4736   -0.1369 H   0  0  0  0  0  0  0  0  0  0  0  0
    5.2771   -1.2688    1.8288 H   0  0  0  0  0  0  0  0  0  0  0  0
    5.9937    1.0271    1.2190 H   0  0  0  0  0  0  0  0  0  0  0  0
  2  1  1  0
  3  2  1  0
  4  1  1  0
  5  1  2  0
  6  1  2  0
  7  3  2  0
  8  3  1  0
  9  4  2  0
 10  4  1  0
 11 13  1  0
 12 11  1  0
 13 10  2  0
 14  9  1  0
 15  8  2  0
 16  8  1  0
 17 16  2  0
 18 15  1  0
 19 17  1  0
 11 14  2  0
 19 18  2  0
  2 20  1  0
  9 21  1  0
 10 22  1  0
 12 23  1  0
 12 24  1  0
 13 25  1  0
 14 26  1  0
 15 27  1  0
 16 28  1  0
 17 29  1  0
 18 30  1  0
 19 31  1  0
M  END
$$$$
