
     RDKit          3D

 31 32  0  0  0  0  0  0  0  0999 V2000
    0.8668    0.4857   -2.0204 S   0  0  0  0  0  0  0  0  0  0  0  0
   -0.4840    0.1365   -1.1035 N   0  0  0  0  0  0  0  0  0  0  0  0
   -1.7816    0.1742   -1.6345 C   0  0  0  0  0  0  0  0  0  0  0  0
    2.1274    0.3454   -0.7670 C   0  0  0  0  0  0  0  0  0  0  0  0
    0.8247    1.8768   -2.4119 O   0  0  0  0  0  0  0  0  0  0  0  0
    1.0913   -0.5879   -2.9620 O   0  0  0  0  0  0  0  0  0  0  0  0
   -2.0336    0.4539   -2.7950 O   0  0  0  0  0  0  0  0  0  0  0  0
   -2.8738   -0.1455   -0.6731 C   0  0  0  0  0  0  0  0  0  0  0  0
    2.7145   -0.8963   -0.5168 C   0  0  0  0  0  0  0  0  0  0  0  0
    2.5088    1.4732   -0.0382 C   0  0  0  0  0  0  0  0  0  0  0  0
    4.1138    0.1221    1.1903 C   0  0  0  0  0  0  0  0  0  0  0  0
    4.9944   -0.0193    2.2683 N   0  0  0  0  0  0  0  0  0  0  0  0
    3.4835    1.3488    0.9548 C   0  0  0  0  0  0  0  0  0  0  0  0
    3.6880   -1.0050    0.4792 C   0  0  0  0  0  0  0  0  0  0  0  0
   -2.6653   -0.9154    0.4805 C   0  0  0  0  0  0  0  0  0  0  0  0
   -4.1546    0.3572   -0.9427 C   0  0  0  0  0  0  0  0  0  0  0  0
   -5.2098    0.1068   -0.0639 C   0  0  0  0  0  0  0  0  0  0  0  0
   -3.7255   -1.1643    1.3564 C   0  0  0  0  0  0  0  0  0  0  0  0
   -4.9934   -0.6506    1.0859 C   0  0  0  0  0  0  0  0  0  0  0  0
   -0.3312    0.1016   -0.1033 H   0  0  0  0  0  0  0  0  0  0  0  0
    2.4182   -1.7784   -1.0805 H   0  0  0  0  0  0  0  0  0  0  0  0
    2.0529    2.4428   -0.2272 H   0  0  0  0  0  0  0  0  0  0  0  0
    5.4851    0.8357    2.5132 H   0  0  0  0  0  0  0  0  0  0  0  0
    5.6286   -0.8079    2.1804 H   0  0  0  0  0  0  0  0  0  0  0  0
    3.7545    2.2234    1.5416 H   0  0  0  0  0  0  0  0  0  0  0  0
    4.1196   -1.9802    0.6919 H   0  0  0  0  0  0  0  0  0  0  0  0
   -1.7003   -1.3619    0.7008 H   0  0  0  0  0  0  0  0  0  0  0  0
   -4.3346    0.9492   -1.8391 H   0  0  0  0  0  0  0  0  0  0  0  0
   -6.2004    0.5009   -0.2790 H   0  0  0  0  0  0  0  0  0  0  0  0
   -3.5667   -1.7689    2.2467 H   0  0  0  0  0  0  0  0  0  0  0  0
   -5.8175   -0.8486    1.7677 H   0  0  0  0  0  0  0  0  0  0  0  0
  2  1  1  0
  3  2  1  0
  4  1  1  0
  5  1  2  0
  6  1  2  0
  7  3  2  0
  8  3  1  0
  9  4  2  0
 10  4  1  0
 11 13  1  0
 12 11  1  0
 13 10  2  0
 14  9  1  0
 15  8  2  0
 16  8  1  0
 17 16  2  0
 18 15  1  0
 19 17  1  0
 11 14  2  0
 19 18  2  0
  2 20  1  0
  9 21  1  0
 10 22  1  0
 12 23  1  0
 12 24  1  0
 13 25  1  0
 14 26  1  0
 15 27  1  0
 16 28  1  0
 17 29  1  0
 18 30  1  0
 19 31  1  0
M  END
$$$$
