
     RDKit          3D

140137  0  0  0  0  0  0  0  0999 V2000
   -2.5880   -0.8965   -0.6455 O   0  0  0  0  0  0  0  0  0  0  0  0
   -2.5648    1.3526   -0.2093 O   0  0  0  0  0  0  0  0  0  0  0  0
   -5.3298   -1.7035   -0.9802 O   0  0  0  0  0  0  0  0  0  0  0  0
   -7.2230   -0.7019    0.7830 O   0  0  0  0  0  0  0  0  0  0  0  0
   -2.1777    0.3887   -0.8525 C   0  0  0  0  0  0  0  0  0  0  0  0
   -4.9224   -0.7841    0.0526 C   0  0  2  0  0  0  0  0  0  0  0  0
   -3.4818   -1.0851    0.4715 C   0  0  0  0  0  0  0  0  0  0  0  0
   -1.2139    0.4271   -2.0153 C   0  0  0  0  0  0  0  0  0  0  0  0
   -0.4829    1.7623   -2.1549 C   0  0  0  0  0  0  0  0  0  0  0  0
   -5.8882   -0.9445    1.2266 C   0  0  0  0  0  0  0  0  0  0  0  0
    0.4816    2.1057   -1.0128 C   0  0  0  0  0  0  0  0  0  0  0  0
    1.6249    1.1008   -0.8463 C   0  0  0  0  0  0  0  0  0  0  0  0
    2.6375    1.5891    0.1933 C   0  0  0  0  0  0  0  0  0  0  0  0
    3.8572    0.6737    0.3386 C   0  0  0  0  0  0  0  0  0  0  0  0
    3.5229   -0.6887    0.9510 C   0  0  0  0  0  0  0  0  0  0  0  0
    4.7468   -1.5944    1.1127 C   0  0  0  0  0  0  0  0  0  0  0  0
    5.7348   -1.1028    2.1596 C   0  0  0  0  0  0  0  0  0  0  0  0
    2.6209   -2.1723    0.6358 C   0  0  0  0  0  0  0  0  0  0  0  0
   -2.2766   -0.6525    0.1180 C   0  0  0  0  0  0  0  0  0  0  0  0
    2.0489   -0.9605    0.8762 O   0  0  0  0  0  0  0  0  0  0  0  0
    2.0468   -3.2513    0.6083 O   0  0  0  0  0  0  0  0  0  0  0  0
   -1.9105   -1.4435   -0.7373 O   0  0  0  0  0  0  0  0  0  0  0  0
   -1.4538    0.1945    0.8014 O   0  0  0  0  0  0  0  0  0  0  0  0
    0.6595   -0.9712    1.2740 C   0  0  2  0  0  0  0  0  0  0  0  0
   -0.0609    0.1086    0.4610 C   0  0  0  0  0  0  0  0  0  0  0  0
    1.2260   -1.6902    3.5294 O   0  0  0  0  0  0  0  0  0  0  0  0
    4.0924   -2.0005    0.3603 C   0  0  0  0  0  0  0  0  0  0  0  0
   -3.6996   -0.4567    0.5863 C   0  0  0  0  0  0  0  0  0  0  0  0
    0.5882   -0.6609    2.7760 C   0  0  0  0  0  0  0  0  0  0  0  0
    4.3230   -1.6167   -1.0960 C   0  0  0  0  0  0  0  0  0  0  0  0
   -4.6563   -1.4571   -0.0640 C   0  0  0  0  0  0  0  0  0  0  0  0
    7.1565    1.8233   -0.0894 C   0  0  0  0  0  0  0  0  0  0  0  0
   -7.6003    1.7932   -1.4623 C   0  0  0  0  0  0  0  0  0  0  0  0
   -6.5661    0.9883   -0.6733 C   0  0  0  0  0  0  0  0  0  0  0  0
    6.2025    0.8726   -0.8145 C   0  0  0  0  0  0  0  0  0  0  0  0
   -6.1044   -1.2979    0.4107 C   0  0  0  0  0  0  0  0  0  0  0  0
   -6.9973   -0.4698   -0.5199 C   0  0  0  0  0  0  0  0  0  0  0  0
    5.8039   -1.5670   -1.4814 C   0  0  0  0  0  0  0  0  0  0  0  0
    6.6644   -0.5801   -0.6858 C   0  0  0  0  0  0  0  0  0  0  0  0
    6.7024    3.2690   -0.2137 C   0  0  0  0  0  0  0  0  0  0  0  0
   -7.1636    3.2387   -1.6376 C   0  0  0  0  0  0  0  0  0  0  0  0
   -2.2607   -0.0848   -0.4677 O   0  0  0  0  0  0  0  0  0  0  0  0
   -3.1971   -1.9978    0.3502 O   0  0  0  0  0  0  0  0  0  0  0  0
   -4.4199    0.1044    1.5915 O   0  0  0  0  0  0  0  0  0  0  0  0
   -5.2676    2.9037   -0.6130 O   0  0  0  0  0  0  0  0  0  0  0  0
   -2.2065   -1.3339    0.0597 C   0  0  0  0  0  0  0  0  0  0  0  0
   -4.1675    1.0720    0.5676 C   0  0  1  0  0  0  0  0  0  0  0  0
   -3.5808    0.4454   -0.7103 C   0  0  0  0  0  0  0  0  0  0  0  0
   -0.7942   -1.8312    0.2672 C   0  0  0  0  0  0  0  0  0  0  0  0
   -5.4762    1.8082    0.2698 C   0  0  0  0  0  0  0  0  0  0  0  0
    0.3016   -0.8292   -0.0941 C   0  0  0  0  0  0  0  0  0  0  0  0
    1.6930   -1.3977    0.1869 C   0  0  0  0  0  0  0  0  0  0  0  0
    2.7870   -0.3986   -0.2019 C   0  0  0  0  0  0  0  0  0  0  0  0
    4.1808   -0.9572    0.0941 C   0  0  0  0  0  0  0  0  0  0  0  0
    5.3134   -0.0514   -0.3967 C   0  0  0  0  0  0  0  0  0  0  0  0
    5.3711    1.2896    0.3194 C   0  0  0  0  0  0  0  0  0  0  0  0
   -4.6380   -1.6642   -1.6667 H   0  0  0  0  0  0  0  0  0  0  0  0
   -7.3000   -1.1889   -0.0634 H   0  0  0  0  0  0  0  0  0  0  0  0
   -5.0175    0.2171   -0.3807 H   0  0  0  0  0  0  0  0  0  0  0  0
   -3.1651   -0.4788    1.3285 H   0  0  0  0  0  0  0  0  0  0  0  0
   -3.3855   -2.1379    0.7581 H   0  0  0  0  0  0  0  0  0  0  0  0
   -1.7988    0.2482   -2.9249 H   0  0  0  0  0  0  0  0  0  0  0  0
   -0.4950   -0.3911   -1.9107 H   0  0  0  0  0  0  0  0  0  0  0  0
    0.0804    1.7536   -3.0968 H   0  0  0  0  0  0  0  0  0  0  0  0
   -1.2186    2.5722   -2.2400 H   0  0  0  0  0  0  0  0  0  0  0  0
   -5.8574   -1.9639    1.6262 H   0  0  0  0  0  0  0  0  0  0  0  0
   -5.6576   -0.2419    2.0328 H   0  0  0  0  0  0  0  0  0  0  0  0
    0.9036    3.0971   -1.2195 H   0  0  0  0  0  0  0  0  0  0  0  0
   -0.0672    2.1959   -0.0686 H   0  0  0  0  0  0  0  0  0  0  0  0
    2.1280    0.9511   -1.8077 H   0  0  0  0  0  0  0  0  0  0  0  0
    1.2162    0.1349   -0.5344 H   0  0  0  0  0  0  0  0  0  0  0  0
    2.1444    1.7031    1.1661 H   0  0  0  0  0  0  0  0  0  0  0  0
    2.9933    2.5848   -0.0976 H   0  0  0  0  0  0  0  0  0  0  0  0
    4.3309    0.5350   -0.6405 H   0  0  0  0  0  0  0  0  0  0  0  0
    4.5866    1.1916    0.9708 H   0  0  0  0  0  0  0  0  0  0  0  0
    3.0376   -0.5498    1.9245 H   0  0  0  0  0  0  0  0  0  0  0  0
    2.8060   -1.2123    0.3091 H   0  0  0  0  0  0  0  0  0  0  0  0
    5.2588   -1.7071    0.1500 H   0  0  0  0  0  0  0  0  0  0  0  0
    4.4030   -2.5936    1.4064 H   0  0  0  0  0  0  0  0  0  0  0  0
    6.5401   -1.8334    2.2868 H   0  0  0  0  0  0  0  0  0  0  0  0
    6.1940   -0.1535    1.8672 H   0  0  0  0  0  0  0  0  0  0  0  0
    5.2444   -0.9667    3.1274 H   0  0  0  0  0  0  0  0  0  0  0  0
    0.1921   -1.9457    1.0913 H   0  0  0  0  0  0  0  0  0  0  0  0
    0.0794   -0.0497   -0.6161 H   0  0  0  0  0  0  0  0  0  0  0  0
    0.3827    1.0907    0.6673 H   0  0  0  0  0  0  0  0  0  0  0  0
    1.1837   -1.4330    4.4654 H   0  0  0  0  0  0  0  0  0  0  0  0
    4.5955   -2.9443    0.6009 H   0  0  0  0  0  0  0  0  0  0  0  0
    4.4907   -1.2498    1.0507 H   0  0  0  0  0  0  0  0  0  0  0  0
   -3.7189   -0.5893    1.6739 H   0  0  0  0  0  0  0  0  0  0  0  0
   -3.9903    0.5704    0.3526 H   0  0  0  0  0  0  0  0  0  0  0  0
    1.1064    0.2774    2.9999 H   0  0  0  0  0  0  0  0  0  0  0  0
   -0.4493   -0.5890    3.1164 H   0  0  0  0  0  0  0  0  0  0  0  0
    3.8435   -0.6549   -1.3117 H   0  0  0  0  0  0  0  0  0  0  0  0
    3.8234   -2.3483   -1.7442 H   0  0  0  0  0  0  0  0  0  0  0  0
   -4.5978   -1.3942   -1.1571 H   0  0  0  0  0  0  0  0  0  0  0  0
   -4.3186   -2.4678    0.2008 H   0  0  0  0  0  0  0  0  0  0  0  0
    7.2130    1.5552    0.9717 H   0  0  0  0  0  0  0  0  0  0  0  0
    8.1671    1.7264   -0.5027 H   0  0  0  0  0  0  0  0  0  0  0  0
   -8.5656    1.7699   -0.9435 H   0  0  0  0  0  0  0  0  0  0  0  0
   -7.7503    1.3407   -2.4493 H   0  0  0  0  0  0  0  0  0  0  0  0
   -5.6050    1.0367   -1.1972 H   0  0  0  0  0  0  0  0  0  0  0  0
   -6.4272    1.4401    0.3161 H   0  0  0  0  0  0  0  0  0  0  0  0
    6.1454    1.1470   -1.8753 H   0  0  0  0  0  0  0  0  0  0  0  0
    5.1974    0.9861   -0.3938 H   0  0  0  0  0  0  0  0  0  0  0  0
   -6.1393   -0.8870    1.4272 H   0  0  0  0  0  0  0  0  0  0  0  0
   -6.5493   -2.2996    0.4702 H   0  0  0  0  0  0  0  0  0  0  0  0
   -7.0330   -0.9452   -1.5081 H   0  0  0  0  0  0  0  0  0  0  0  0
   -8.0197   -0.5031   -0.1228 H   0  0  0  0  0  0  0  0  0  0  0  0
    6.2327   -2.5706   -1.3670 H   0  0  0  0  0  0  0  0  0  0  0  0
    5.8762   -1.3210   -2.5480 H   0  0  0  0  0  0  0  0  0  0  0  0
    6.6921   -0.8703    0.3707 H   0  0  0  0  0  0  0  0  0  0  0  0
    7.6958   -0.6612   -1.0522 H   0  0  0  0  0  0  0  0  0  0  0  0
    5.7076    3.4054    0.2223 H   0  0  0  0  0  0  0  0  0  0  0  0
    6.6637    3.5798   -1.2626 H   0  0  0  0  0  0  0  0  0  0  0  0
    7.3970    3.9319    0.3108 H   0  0  0  0  0  0  0  0  0  0  0  0
   -7.9186    3.7973   -2.1997 H   0  0  0  0  0  0  0  0  0  0  0  0
   -7.0303    3.7304   -0.6683 H   0  0  0  0  0  0  0  0  0  0  0  0
   -6.2185    3.2985   -2.1861 H   0  0  0  0  0  0  0  0  0  0  0  0
   -4.3413   -0.7938    1.2062 H   0  0  0  0  0  0  0  0  0  0  0  0
   -4.8776    3.6249   -0.0876 H   0  0  0  0  0  0  0  0  0  0  0  0
   -3.4332    1.7760    0.9748 H   0  0  0  0  0  0  0  0  0  0  0  0
   -4.2328   -0.3392   -1.1131 H   0  0  0  0  0  0  0  0  0  0  0  0
   -3.4640    1.2042   -1.4906 H   0  0  0  0  0  0  0  0  0  0  0  0
   -0.6745   -2.7357   -0.3393 H   0  0  0  0  0  0  0  0  0  0  0  0
   -0.7001   -2.1034    1.3251 H   0  0  0  0  0  0  0  0  0  0  0  0
   -5.9346    2.1810    1.1927 H   0  0  0  0  0  0  0  0  0  0  0  0
   -6.2020    1.1269   -0.1887 H   0  0  0  0  0  0  0  0  0  0  0  0
    0.2246   -0.5621   -1.1551 H   0  0  0  0  0  0  0  0  0  0  0  0
    0.1640    0.0964    0.4784 H   0  0  0  0  0  0  0  0  0  0  0  0
    1.8319   -2.3298   -0.3746 H   0  0  0  0  0  0  0  0  0  0  0  0
    1.7826   -1.6446    1.2521 H   0  0  0  0  0  0  0  0  0  0  0  0
    2.7057   -0.1625   -1.2698 H   0  0  0  0  0  0  0  0  0  0  0  0
    2.6327    0.5353    0.3506 H   0  0  0  0  0  0  0  0  0  0  0  0
    4.2887   -1.9325   -0.3956 H   0  0  0  0  0  0  0  0  0  0  0  0
    4.2892   -1.1311    1.1717 H   0  0  0  0  0  0  0  0  0  0  0  0
    5.2158    0.1150   -1.4765 H   0  0  0  0  0  0  0  0  0  0  0  0
    6.2663   -0.5714   -0.2398 H   0  0  0  0  0  0  0  0  0  0  0  0
    6.2524    1.8505   -0.0069 H   0  0  0  0  0  0  0  0  0  0  0  0
    4.4904    1.9007    0.1018 H   0  0  0  0  0  0  0  0  0  0  0  0
    5.4393    1.1533    1.4035 H   0  0  0  0  0  0  0  0  0  0  0  0
  1  5  1  0
  1  7  1  0
  2  5  2  0
  3  6  1  0
  4 10  1  0
  5  8  1  0
  6  7  1  0
  6 10  1  0
  8  9  1  0
  9 11  1  0
 11 12  1  0
 12 13  1  0
 13 14  1  0
 14 15  1  0
 15 16  1  0
 16 17  1  0
 19 23  1  0
 20 18  1  0
 21 18  2  0
 22 19  2  0
 23 25  1  0
 24 20  1  0
 25 24  1  0
 26 29  1  0
 27 18  1  0
 28 19  1  0
 29 24  1  0
 30 27  1  0
 31 28  1  0
 32 35  1  0
 33 34  1  0
 34 37  1  0
 35 39  1  0
 36 31  1  0
 37 36  1  0
 38 30  1  0
 39 38  1  0
 40 32  1  0
 41 33  1  0
 42 46  1  0
 42 48  1  0
 43 46  2  0
 44 47  1  0
 45 50  1  0
 46 49  1  0
 47 48  1  0
 47 50  1  0
 49 51  1  0
 51 52  1  0
 52 53  1  0
 53 54  1  0
 54 55  1  0
 55 56  1  0
  3 57  1  0
  4 58  1  0
  6 59  1  6
  7 60  1  0
  7 61  1  0
  8 62  1  0
  8 63  1  0
  9 64  1  0
  9 65  1  0
 10 66  1  0
 10 67  1  0
 11 68  1  0
 11 69  1  0
 12 70  1  0
 12 71  1  0
 13 72  1  0
 13 73  1  0
 14 74  1  0
 14 75  1  0
 15 76  1  0
 15 77  1  0
 16 78  1  0
 16 79  1  0
 17 80  1  0
 17 81  1  0
 17 82  1  0
 24 83  1  1
 25 84  1  0
 25 85  1  0
 26 86  1  0
 27 87  1  0
 27 88  1  0
 28 89  1  0
 28 90  1  0
 29 91  1  0
 29 92  1  0
 30 93  1  0
 30 94  1  0
 31 95  1  0
 31 96  1  0
 32 97  1  0
 32 98  1  0
 33 99  1  0
 33100  1  0
 34101  1  0
 34102  1  0
 35103  1  0
 35104  1  0
 36105  1  0
 36106  1  0
 37107  1  0
 37108  1  0
 38109  1  0
 38110  1  0
 39111  1  0
 39112  1  0
 40113  1  0
 40114  1  0
 40115  1  0
 41116  1  0
 41117  1  0
 41118  1  0
 44119  1  0
 45120  1  0
 47121  1  1
 48122  1  0
 48123  1  0
 49124  1  0
 49125  1  0
 50126  1  0
 50127  1  0
 51128  1  0
 51129  1  0
 52130  1  0
 52131  1  0
 53132  1  0
 53133  1  0
 54134  1  0
 54135  1  0
 55136  1  0
 55137  1  0
 56138  1  0
 56139  1  0
 56140  1  0
M  END
$$$$
