
     RDKit          3D

140137  0  0  0  0  0  0  0  0999 V2000
    3.2895    0.4012   -0.4510 O   0  0  0  0  0  0  0  0  0  0  0  0
    2.1289    1.7305   -1.9112 O   0  0  0  0  0  0  0  0  0  0  0  0
    5.2603    0.5578    1.5796 O   0  0  0  0  0  0  0  0  0  0  0  0
    6.4493   -0.4356   -1.7633 O   0  0  0  0  0  0  0  0  0  0  0  0
    2.1967    0.7478   -1.1895 C   0  0  0  0  0  0  0  0  0  0  0  0
    5.5929    0.7578    0.1996 C   0  0  2  0  0  0  0  0  0  0  0  0
    4.3798    1.3404   -0.5362 C   0  0  0  0  0  0  0  0  0  0  0  0
    1.1130   -0.2912   -1.0127 C   0  0  0  0  0  0  0  0  0  0  0  0
   -0.2715    0.2196   -1.4137 C   0  0  0  0  0  0  0  0  0  0  0  0
    6.0743   -0.5695   -0.3990 C   0  0  0  0  0  0  0  0  0  0  0  0
   -0.8309    1.3261   -0.5104 C   0  0  0  0  0  0  0  0  0  0  0  0
   -1.0224    0.9496    0.9634 C   0  0  0  0  0  0  0  0  0  0  0  0
   -1.9086   -0.2715    1.2298 C   0  0  0  0  0  0  0  0  0  0  0  0
   -3.3353   -0.1125    0.6985 C   0  0  0  0  0  0  0  0  0  0  0  0
   -4.2070   -1.3140    1.0707 C   0  0  0  0  0  0  0  0  0  0  0  0
   -5.6714   -1.1503    0.6584 C   0  0  0  0  0  0  0  0  0  0  0  0
   -5.8788   -1.1075   -0.8471 C   0  0  0  0  0  0  0  0  0  0  0  0
    2.5522    0.8285   -0.1908 C   0  0  0  0  0  0  0  0  0  0  0  0
   -1.1791    0.9677    0.7126 C   0  0  0  0  0  0  0  0  0  0  0  0
    1.4967    0.3963   -0.9369 O   0  0  0  0  0  0  0  0  0  0  0  0
    3.0073    1.9642   -0.2139 O   0  0  0  0  0  0  0  0  0  0  0  0
   -0.1724    0.8575    1.4040 O   0  0  0  0  0  0  0  0  0  0  0  0
   -1.2500    1.6570   -0.4533 O   0  0  0  0  0  0  0  0  0  0  0  0
    0.8577    1.4079   -1.7494 C   0  0  2  0  0  0  0  0  0  0  0  0
   -0.0525    2.3153   -0.8993 C   0  0  0  0  0  0  0  0  0  0  0  0
   -0.7263   -0.3714   -2.3553 O   0  0  0  0  0  0  0  0  0  0  0  0
    3.0950   -0.2849    0.6695 C   0  0  0  0  0  0  0  0  0  0  0  0
   -2.4821    0.2804    1.0534 C   0  0  0  0  0  0  0  0  0  0  0  0
    0.1108    0.6655   -2.8660 C   0  0  0  0  0  0  0  0  0  0  0  0
    3.6507   -1.4490   -0.1474 C   0  0  0  0  0  0  0  0  0  0  0  0
   -3.7112    0.8659    0.3568 C   0  0  0  0  0  0  0  0  0  0  0  0
    8.0367   -0.7502    1.0569 C   0  0  0  0  0  0  0  0  0  0  0  0
   -7.7133   -1.3033    0.4154 C   0  0  0  0  0  0  0  0  0  0  0  0
   -7.5504    0.2005    0.6413 C   0  0  0  0  0  0  0  0  0  0  0  0
    6.6980   -1.3125    0.5733 C   0  0  0  0  0  0  0  0  0  0  0  0
   -4.9967    0.1864    0.8352 C   0  0  0  0  0  0  0  0  0  0  0  0
   -6.2230    0.7539    0.1181 C   0  0  0  0  0  0  0  0  0  0  0  0
    4.7866   -1.0812   -1.1093 C   0  0  0  0  0  0  0  0  0  0  0  0
    6.0153   -0.4255   -0.4709 C   0  0  0  0  0  0  0  0  0  0  0  0
    7.9016    0.5536    1.8278 C   0  0  0  0  0  0  0  0  0  0  0  0
   -9.0952   -1.7834    0.8324 C   0  0  0  0  0  0  0  0  0  0  0  0
   -2.3971    0.7848   -0.6263 O   0  0  0  0  0  0  0  0  0  0  0  0
   -2.6543    1.3711    1.5769 O   0  0  0  0  0  0  0  0  0  0  0  0
   -5.9890    0.9200   -1.4888 O   0  0  0  0  0  0  0  0  0  0  0  0
   -3.9753   -1.4141    0.5057 O   0  0  0  0  0  0  0  0  0  0  0  0
   -2.0084    0.8503    0.6749 C   0  0  0  0  0  0  0  0  0  0  0  0
   -4.7733    0.2830   -1.0709 C   0  0  1  0  0  0  0  0  0  0  0  0
   -3.6760    1.3510   -0.9314 C   0  0  0  0  0  0  0  0  0  0  0  0
   -0.6998    0.1284    0.8990 C   0  0  0  0  0  0  0  0  0  0  0  0
   -5.0382   -0.5169    0.2129 C   0  0  0  0  0  0  0  0  0  0  0  0
    0.3203    0.3651   -0.2144 C   0  0  0  0  0  0  0  0  0  0  0  0
    1.6749   -0.2549    0.1325 C   0  0  0  0  0  0  0  0  0  0  0  0
    2.6810   -0.0620   -1.0032 C   0  0  0  0  0  0  0  0  0  0  0  0
    4.0229   -0.7550   -0.7512 C   0  0  0  0  0  0  0  0  0  0  0  0
    4.8125   -0.1495    0.4099 C   0  0  0  0  0  0  0  0  0  0  0  0
    6.1747   -0.8117    0.5582 C   0  0  0  0  0  0  0  0  0  0  0  0
    4.4043    0.0930    1.5997 H   0  0  0  0  0  0  0  0  0  0  0  0
    5.6473   -0.5327   -2.3055 H   0  0  0  0  0  0  0  0  0  0  0  0
    6.4083    1.4888    0.1566 H   0  0  0  0  0  0  0  0  0  0  0  0
    4.6293    1.5431   -1.5841 H   0  0  0  0  0  0  0  0  0  0  0  0
    4.0659    2.2670   -0.0422 H   0  0  0  0  0  0  0  0  0  0  0  0
    1.1057   -0.6358    0.0264 H   0  0  0  0  0  0  0  0  0  0  0  0
    1.3786   -1.1441   -1.6474 H   0  0  0  0  0  0  0  0  0  0  0  0
   -0.9679   -0.6263   -1.4318 H   0  0  0  0  0  0  0  0  0  0  0  0
   -0.2338    0.6032   -2.4415 H   0  0  0  0  0  0  0  0  0  0  0  0
    5.3160   -1.3555   -0.3081 H   0  0  0  0  0  0  0  0  0  0  0  0
    6.9490   -0.9239    0.1585 H   0  0  0  0  0  0  0  0  0  0  0  0
   -0.1713    2.2009   -0.5553 H   0  0  0  0  0  0  0  0  0  0  0  0
   -1.7896    1.6588   -0.9260 H   0  0  0  0  0  0  0  0  0  0  0  0
   -1.4523    1.8149    1.4840 H   0  0  0  0  0  0  0  0  0  0  0  0
   -0.0426    0.7786    1.4250 H   0  0  0  0  0  0  0  0  0  0  0  0
   -1.4497   -1.1705    0.8036 H   0  0  0  0  0  0  0  0  0  0  0  0
   -1.9486   -0.4310    2.3152 H   0  0  0  0  0  0  0  0  0  0  0  0
   -3.3112   -0.0043   -0.3896 H   0  0  0  0  0  0  0  0  0  0  0  0
   -3.7771    0.8031    1.1081 H   0  0  0  0  0  0  0  0  0  0  0  0
   -4.1721   -1.4592    2.1569 H   0  0  0  0  0  0  0  0  0  0  0  0
   -3.7958   -2.2244    0.6190 H   0  0  0  0  0  0  0  0  0  0  0  0
   -6.0839   -0.2397    1.1079 H   0  0  0  0  0  0  0  0  0  0  0  0
   -6.2443   -1.9937    1.0639 H   0  0  0  0  0  0  0  0  0  0  0  0
   -6.9482   -1.0720   -1.0783 H   0  0  0  0  0  0  0  0  0  0  0  0
   -5.4568   -1.9962   -1.3259 H   0  0  0  0  0  0  0  0  0  0  0  0
   -5.4180   -0.2206   -1.2915 H   0  0  0  0  0  0  0  0  0  0  0  0
    1.6280    2.0308   -2.2231 H   0  0  0  0  0  0  0  0  0  0  0  0
   -0.3853    3.1584   -1.5164 H   0  0  0  0  0  0  0  0  0  0  0  0
    0.4796    2.7434   -0.0416 H   0  0  0  0  0  0  0  0  0  0  0  0
   -0.1814   -0.8570   -1.7074 H   0  0  0  0  0  0  0  0  0  0  0  0
    2.2872   -0.6354    1.3216 H   0  0  0  0  0  0  0  0  0  0  0  0
    3.8651    0.1310    1.3295 H   0  0  0  0  0  0  0  0  0  0  0  0
   -2.3740   -0.7784    0.7941 H   0  0  0  0  0  0  0  0  0  0  0  0
   -2.6129    0.3646    2.1396 H   0  0  0  0  0  0  0  0  0  0  0  0
    0.8332    0.1859   -3.5365 H   0  0  0  0  0  0  0  0  0  0  0  0
   -0.5015    1.3530   -3.4579 H   0  0  0  0  0  0  0  0  0  0  0  0
    3.9918   -2.2326    0.5405 H   0  0  0  0  0  0  0  0  0  0  0  0
    2.8405   -1.8972   -0.7366 H   0  0  0  0  0  0  0  0  0  0  0  0
   -3.7698    1.9443    0.5521 H   0  0  0  0  0  0  0  0  0  0  0  0
   -3.6176    0.7428   -0.7297 H   0  0  0  0  0  0  0  0  0  0  0  0
    8.5107   -1.4925    1.7104 H   0  0  0  0  0  0  0  0  0  0  0  0
    8.7117   -0.6029    0.2057 H   0  0  0  0  0  0  0  0  0  0  0  0
   -7.5542   -1.5409   -0.6425 H   0  0  0  0  0  0  0  0  0  0  0  0
   -6.9642   -1.8576    0.9905 H   0  0  0  0  0  0  0  0  0  0  0  0
   -7.6479    0.4285    1.7098 H   0  0  0  0  0  0  0  0  0  0  0  0
   -8.3647    0.7302    0.1308 H   0  0  0  0  0  0  0  0  0  0  0  0
    6.8793   -2.3032    0.1394 H   0  0  0  0  0  0  0  0  0  0  0  0
    6.0381   -1.4603    1.4362 H   0  0  0  0  0  0  0  0  0  0  0  0
   -5.1067    0.3259    1.9171 H   0  0  0  0  0  0  0  0  0  0  0  0
   -4.9197   -0.8907    0.6525 H   0  0  0  0  0  0  0  0  0  0  0  0
   -6.1437    0.5593   -0.9580 H   0  0  0  0  0  0  0  0  0  0  0  0
   -6.2354    1.8439    0.2374 H   0  0  0  0  0  0  0  0  0  0  0  0
    4.4006   -0.4105   -1.8868 H   0  0  0  0  0  0  0  0  0  0  0  0
    5.1037   -1.9944   -1.6296 H   0  0  0  0  0  0  0  0  0  0  0  0
    5.7327    0.5362   -0.0296 H   0  0  0  0  0  0  0  0  0  0  0  0
    6.7323   -0.1990   -1.2705 H   0  0  0  0  0  0  0  0  0  0  0  0
    7.2163    0.4402    2.6733 H   0  0  0  0  0  0  0  0  0  0  0  0
    7.5343    1.3624    1.1887 H   0  0  0  0  0  0  0  0  0  0  0  0
    8.8755    0.8607    2.2211 H   0  0  0  0  0  0  0  0  0  0  0  0
   -9.1843   -2.8626    0.6734 H   0  0  0  0  0  0  0  0  0  0  0  0
   -9.8761   -1.2881    0.2468 H   0  0  0  0  0  0  0  0  0  0  0  0
   -9.2776   -1.5774    1.8919 H   0  0  0  0  0  0  0  0  0  0  0  0
   -6.2643    1.5356   -0.7875 H   0  0  0  0  0  0  0  0  0  0  0  0
   -4.1831   -1.8218    1.3640 H   0  0  0  0  0  0  0  0  0  0  0  0
   -4.4742   -0.4168   -1.8606 H   0  0  0  0  0  0  0  0  0  0  0  0
   -3.9751    2.1269   -0.2137 H   0  0  0  0  0  0  0  0  0  0  0  0
   -3.5723    1.8763   -1.8891 H   0  0  0  0  0  0  0  0  0  0  0  0
   -0.2883    0.4882    1.8498 H   0  0  0  0  0  0  0  0  0  0  0  0
   -0.9157   -0.9401    1.0050 H   0  0  0  0  0  0  0  0  0  0  0  0
   -5.9569   -1.1040    0.1026 H   0  0  0  0  0  0  0  0  0  0  0  0
   -5.1863    0.1558    1.0655 H   0  0  0  0  0  0  0  0  0  0  0  0
    0.4373    1.4414   -0.3871 H   0  0  0  0  0  0  0  0  0  0  0  0
   -0.0474   -0.0677   -1.1538 H   0  0  0  0  0  0  0  0  0  0  0  0
    1.5468   -1.3255    0.3336 H   0  0  0  0  0  0  0  0  0  0  0  0
    2.0545    0.2043    1.0518 H   0  0  0  0  0  0  0  0  0  0  0  0
    2.2540   -0.4697   -1.9280 H   0  0  0  0  0  0  0  0  0  0  0  0
    2.8438    1.0090   -1.1769 H   0  0  0  0  0  0  0  0  0  0  0  0
    3.8564   -1.8230   -0.5703 H   0  0  0  0  0  0  0  0  0  0  0  0
    4.6210   -0.6821   -1.6672 H   0  0  0  0  0  0  0  0  0  0  0  0
    4.9510    0.9244    0.2450 H   0  0  0  0  0  0  0  0  0  0  0  0
    4.2610   -0.2691    1.3484 H   0  0  0  0  0  0  0  0  0  0  0  0
    6.7711   -0.6875   -0.3520 H   0  0  0  0  0  0  0  0  0  0  0  0
    6.0676   -1.8835    0.7593 H   0  0  0  0  0  0  0  0  0  0  0  0
    6.7243   -0.3607    1.3916 H   0  0  0  0  0  0  0  0  0  0  0  0
  1  5  1  0
  1  7  1  0
  2  5  2  0
  3  6  1  0
  4 10  1  0
  5  8  1  0
  6  7  1  0
  6 10  1  0
  8  9  1  0
  9 11  1  0
 11 12  1  0
 12 13  1  0
 13 14  1  0
 14 15  1  0
 15 16  1  0
 16 17  1  0
 19 23  1  0
 20 18  1  0
 21 18  2  0
 22 19  2  0
 23 25  1  0
 24 20  1  0
 25 24  1  0
 26 29  1  0
 27 18  1  0
 28 19  1  0
 29 24  1  0
 30 27  1  0
 31 28  1  0
 32 35  1  0
 33 34  1  0
 34 37  1  0
 35 39  1  0
 36 31  1  0
 37 36  1  0
 38 30  1  0
 39 38  1  0
 40 32  1  0
 41 33  1  0
 42 46  1  0
 42 48  1  0
 43 46  2  0
 44 47  1  0
 45 50  1  0
 46 49  1  0
 47 48  1  0
 47 50  1  0
 49 51  1  0
 51 52  1  0
 52 53  1  0
 53 54  1  0
 54 55  1  0
 55 56  1  0
  3 57  1  0
  4 58  1  0
  6 59  1  1
  7 60  1  0
  7 61  1  0
  8 62  1  0
  8 63  1  0
  9 64  1  0
  9 65  1  0
 10 66  1  0
 10 67  1  0
 11 68  1  0
 11 69  1  0
 12 70  1  0
 12 71  1  0
 13 72  1  0
 13 73  1  0
 14 74  1  0
 14 75  1  0
 15 76  1  0
 15 77  1  0
 16 78  1  0
 16 79  1  0
 17 80  1  0
 17 81  1  0
 17 82  1  0
 24 83  1  6
 25 84  1  0
 25 85  1  0
 26 86  1  0
 27 87  1  0
 27 88  1  0
 28 89  1  0
 28 90  1  0
 29 91  1  0
 29 92  1  0
 30 93  1  0
 30 94  1  0
 31 95  1  0
 31 96  1  0
 32 97  1  0
 32 98  1  0
 33 99  1  0
 33100  1  0
 34101  1  0
 34102  1  0
 35103  1  0
 35104  1  0
 36105  1  0
 36106  1  0
 37107  1  0
 37108  1  0
 38109  1  0
 38110  1  0
 39111  1  0
 39112  1  0
 40113  1  0
 40114  1  0
 40115  1  0
 41116  1  0
 41117  1  0
 41118  1  0
 44119  1  0
 45120  1  0
 47121  1  6
 48122  1  0
 48123  1  0
 49124  1  0
 49125  1  0
 50126  1  0
 50127  1  0
 51128  1  0
 51129  1  0
 52130  1  0
 52131  1  0
 53132  1  0
 53133  1  0
 54134  1  0
 54135  1  0
 55136  1  0
 55137  1  0
 56138  1  0
 56139  1  0
 56140  1  0
M  END
$$$$
