
     RDKit          3D

140137  0  0  0  0  0  0  0  0999 V2000
    3.5119    0.4687    0.5641 O   0  0  0  0  0  0  0  0  0  0  0  0
    2.5099    0.4281   -1.4965 O   0  0  0  0  0  0  0  0  0  0  0  0
    6.5147   -0.3857   -1.4211 O   0  0  0  0  0  0  0  0  0  0  0  0
    6.8869   -1.0516    1.2263 O   0  0  0  0  0  0  0  0  0  0  0  0
    2.4423    0.3992   -0.2748 C   0  0  0  0  0  0  0  0  0  0  0  0
    5.3566   -0.6556   -0.6167 C   0  0  2  0  0  0  0  0  0  0  0  0
    4.7818    0.6605   -0.0789 C   0  0  0  0  0  0  0  0  0  0  0  0
    1.1624    0.2499    0.5105 C   0  0  0  0  0  0  0  0  0  0  0  0
    0.1073    1.2323    0.0090 C   0  0  0  0  0  0  0  0  0  0  0  0
    5.7799   -1.6016    0.5132 C   0  0  0  0  0  0  0  0  0  0  0  0
   -1.1563    1.2529    0.8716 C   0  0  0  0  0  0  0  0  0  0  0  0
   -1.9319   -0.0674    0.9342 C   0  0  0  0  0  0  0  0  0  0  0  0
   -2.4190   -0.6166   -0.4110 C   0  0  0  0  0  0  0  0  0  0  0  0
   -3.2717    0.3357   -1.2593 C   0  0  0  0  0  0  0  0  0  0  0  0
   -4.5136    0.9347   -0.5880 C   0  0  0  0  0  0  0  0  0  0  0  0
   -5.7792    0.0766   -0.6560 C   0  0  0  0  0  0  0  0  0  0  0  0
   -5.7314   -1.1945    0.1731 C   0  0  0  0  0  0  0  0  0  0  0  0
   -2.6468    0.6116   -0.9271 C   0  0  0  0  0  0  0  0  0  0  0  0
    2.5771    1.2626   -1.1526 C   0  0  0  0  0  0  0  0  0  0  0  0
   -1.5997   -0.2190   -0.6695 O   0  0  0  0  0  0  0  0  0  0  0  0
   -2.6070    1.8346   -0.9372 O   0  0  0  0  0  0  0  0  0  0  0  0
    2.0686    1.7157   -2.1691 O   0  0  0  0  0  0  0  0  0  0  0  0
    2.0379    0.2775   -0.3870 O   0  0  0  0  0  0  0  0  0  0  0  0
   -0.3975    0.4032   -0.1654 C   0  0  2  0  0  0  0  0  0  0  0  0
    0.7942   -0.2710   -0.8506 C   0  0  0  0  0  0  0  0  0  0  0  0
   -1.4476    0.8227    1.9936 O   0  0  0  0  0  0  0  0  0  0  0  0
   -3.8837   -0.1828   -1.2710 C   0  0  0  0  0  0  0  0  0  0  0  0
    3.8548    1.8030   -0.5525 C   0  0  0  0  0  0  0  0  0  0  0  0
   -0.3438    0.1849    1.3542 C   0  0  0  0  0  0  0  0  0  0  0  0
   -4.2085   -1.2302   -0.2081 C   0  0  0  0  0  0  0  0  0  0  0  0
    4.7257    0.7740    0.1691 C   0  0  0  0  0  0  0  0  0  0  0  0
   -8.3479    0.3854    0.8249 C   0  0  0  0  0  0  0  0  0  0  0  0
    8.3646   -0.0824   -0.0122 C   0  0  0  0  0  0  0  0  0  0  0  0
    7.3111   -0.8822    0.7588 C   0  0  0  0  0  0  0  0  0  0  0  0
   -7.0160   -0.3655    0.8408 C   0  0  0  0  0  0  0  0  0  0  0  0
    5.3146   -0.2701   -0.7852 C   0  0  0  0  0  0  0  0  0  0  0  0
    6.1113   -1.3629   -0.0653 C   0  0  0  0  0  0  0  0  0  0  0  0
   -5.5187   -1.9784   -0.4663 C   0  0  0  0  0  0  0  0  0  0  0  0
   -6.7896   -1.1234   -0.4694 C   0  0  0  0  0  0  0  0  0  0  0  0
   -8.5714    1.1454    2.1233 C   0  0  0  0  0  0  0  0  0  0  0  0
    9.0268   -0.8735   -1.1297 C   0  0  0  0  0  0  0  0  0  0  0  0
   -2.3680   -0.5440    0.5853 O   0  0  0  0  0  0  0  0  0  0  0  0
   -1.7522    1.0272   -0.9662 O   0  0  0  0  0  0  0  0  0  0  0  0
   -5.2131   -0.8095    1.2946 O   0  0  0  0  0  0  0  0  0  0  0  0
   -6.2907    0.7014   -0.7871 O   0  0  0  0  0  0  0  0  0  0  0  0
   -1.7103   -0.1121   -0.5218 C   0  0  0  0  0  0  0  0  0  0  0  0
   -4.6115    0.4395    0.9196 C   0  0  1  0  0  0  0  0  0  0  0  0
   -3.1290    0.4420    1.3073 C   0  0  0  0  0  0  0  0  0  0  0  0
   -0.9208   -1.2361   -1.1404 C   0  0  0  0  0  0  0  0  0  0  0  0
   -4.8741    0.6782   -0.5692 C   0  0  0  0  0  0  0  0  0  0  0  0
    0.3793   -1.5089   -0.3891 C   0  0  0  0  0  0  0  0  0  0  0  0
    1.4090   -0.3881   -0.5688 C   0  0  0  0  0  0  0  0  0  0  0  0
    2.7251   -0.7324    0.1330 C   0  0  0  0  0  0  0  0  0  0  0  0
    3.7678    0.3699   -0.0601 C   0  0  0  0  0  0  0  0  0  0  0  0
    5.0757    0.0305    0.6538 C   0  0  0  0  0  0  0  0  0  0  0  0
    6.1216    1.1152    0.4486 C   0  0  0  0  0  0  0  0  0  0  0  0
    6.1938    0.0335   -2.2403 H   0  0  0  0  0  0  0  0  0  0  0  0
    7.5154   -0.7707    0.5302 H   0  0  0  0  0  0  0  0  0  0  0  0
    4.6193   -1.1757   -1.2383 H   0  0  0  0  0  0  0  0  0  0  0  0
    5.4587    1.1057    0.6568 H   0  0  0  0  0  0  0  0  0  0  0  0
    4.6969    1.4076   -0.8800 H   0  0  0  0  0  0  0  0  0  0  0  0
    0.8306   -0.7885    0.4114 H   0  0  0  0  0  0  0  0  0  0  0  0
    1.3628    0.4369    1.5727 H   0  0  0  0  0  0  0  0  0  0  0  0
   -0.1474    1.0110   -1.0344 H   0  0  0  0  0  0  0  0  0  0  0  0
    0.5354    2.2440    0.0016 H   0  0  0  0  0  0  0  0  0  0  0  0
    4.9630   -1.7890    1.2155 H   0  0  0  0  0  0  0  0  0  0  0  0
    6.1097   -2.5598    0.0992 H   0  0  0  0  0  0  0  0  0  0  0  0
   -0.8813    1.5380    1.8950 H   0  0  0  0  0  0  0  0  0  0  0  0
   -1.8170    2.0491    0.5065 H   0  0  0  0  0  0  0  0  0  0  0  0
   -2.7909    0.0672    1.6012 H   0  0  0  0  0  0  0  0  0  0  0  0
   -1.3093   -0.8308    1.4166 H   0  0  0  0  0  0  0  0  0  0  0  0
   -1.5499   -0.9175   -1.0091 H   0  0  0  0  0  0  0  0  0  0  0  0
   -2.9706   -1.5420   -0.2226 H   0  0  0  0  0  0  0  0  0  0  0  0
   -2.6310    1.1671   -1.5790 H   0  0  0  0  0  0  0  0  0  0  0  0
   -3.5671   -0.1803   -2.1812 H   0  0  0  0  0  0  0  0  0  0  0  0
   -4.7423    1.8702   -1.1168 H   0  0  0  0  0  0  0  0  0  0  0  0
   -4.3122    1.2253    0.4479 H   0  0  0  0  0  0  0  0  0  0  0  0
   -6.6178    0.6853   -0.2956 H   0  0  0  0  0  0  0  0  0  0  0  0
   -6.0066   -0.1768   -1.6988 H   0  0  0  0  0  0  0  0  0  0  0  0
   -5.0903   -1.9479   -0.2920 H   0  0  0  0  0  0  0  0  0  0  0  0
   -5.3706   -0.9965    1.1871 H   0  0  0  0  0  0  0  0  0  0  0  0
   -6.7322   -1.6309    0.2499 H   0  0  0  0  0  0  0  0  0  0  0  0
   -0.3791    1.4793   -0.3760 H   0  0  0  0  0  0  0  0  0  0  0  0
    0.7030   -0.2133   -1.9416 H   0  0  0  0  0  0  0  0  0  0  0  0
    0.8053   -1.3429   -0.6185 H   0  0  0  0  0  0  0  0  0  0  0  0
   -1.3630    0.6638    2.9485 H   0  0  0  0  0  0  0  0  0  0  0  0
   -4.7066    0.5334   -1.3621 H   0  0  0  0  0  0  0  0  0  0  0  0
   -3.7390   -0.6439   -2.2528 H   0  0  0  0  0  0  0  0  0  0  0  0
    4.4354    2.2658   -1.3603 H   0  0  0  0  0  0  0  0  0  0  0  0
    3.5703    2.5956    0.1485 H   0  0  0  0  0  0  0  0  0  0  0  0
   -0.4037   -0.8834    1.5913 H   0  0  0  0  0  0  0  0  0  0  0  0
    0.5766    0.5971    1.7786 H   0  0  0  0  0  0  0  0  0  0  0  0
   -4.2239   -0.7655    0.7852 H   0  0  0  0  0  0  0  0  0  0  0  0
   -3.4007   -1.9719   -0.1735 H   0  0  0  0  0  0  0  0  0  0  0  0
    4.1550    0.2741    0.9602 H   0  0  0  0  0  0  0  0  0  0  0  0
    5.5404    1.3173    0.6622 H   0  0  0  0  0  0  0  0  0  0  0  0
   -8.3670    1.0910   -0.0134 H   0  0  0  0  0  0  0  0  0  0  0  0
   -9.1732   -0.3197    0.6743 H   0  0  0  0  0  0  0  0  0  0  0  0
    7.9255    0.8329   -0.4236 H   0  0  0  0  0  0  0  0  0  0  0  0
    9.1395    0.2371    0.6945 H   0  0  0  0  0  0  0  0  0  0  0  0
    6.9559   -0.2752    1.6008 H   0  0  0  0  0  0  0  0  0  0  0  0
    7.7920   -1.7614    1.2054 H   0  0  0  0  0  0  0  0  0  0  0  0
   -7.0018   -1.0702    1.6798 H   0  0  0  0  0  0  0  0  0  0  0  0
   -6.2044    0.3530    1.0014 H   0  0  0  0  0  0  0  0  0  0  0  0
    4.5045   -0.7591   -1.3395 H   0  0  0  0  0  0  0  0  0  0  0  0
    5.9447    0.2227   -1.5339 H   0  0  0  0  0  0  0  0  0  0  0  0
    5.4329   -1.9063    0.6055 H   0  0  0  0  0  0  0  0  0  0  0  0
    6.4501   -2.0953   -0.8071 H   0  0  0  0  0  0  0  0  0  0  0  0
   -5.6247   -2.7596    0.2975 H   0  0  0  0  0  0  0  0  0  0  0  0
   -5.4481   -2.4992   -1.4285 H   0  0  0  0  0  0  0  0  0  0  0  0
   -6.7681   -0.4187   -1.3082 H   0  0  0  0  0  0  0  0  0  0  0  0
   -7.6440   -1.7873   -0.6520 H   0  0  0  0  0  0  0  0  0  0  0  0
   -8.5914    0.4626    2.9785 H   0  0  0  0  0  0  0  0  0  0  0  0
   -7.7793    1.8826    2.2895 H   0  0  0  0  0  0  0  0  0  0  0  0
   -9.5274    1.6766    2.0907 H   0  0  0  0  0  0  0  0  0  0  0  0
    9.4745   -1.7958   -0.7445 H   0  0  0  0  0  0  0  0  0  0  0  0
    8.3110   -1.1377   -1.9133 H   0  0  0  0  0  0  0  0  0  0  0  0
    9.8205   -0.2770   -1.5902 H   0  0  0  0  0  0  0  0  0  0  0  0
   -6.0336   -0.8766    0.7657 H   0  0  0  0  0  0  0  0  0  0  0  0
   -6.6113    1.5692   -0.4832 H   0  0  0  0  0  0  0  0  0  0  0  0
   -5.1324    1.2066    1.5045 H   0  0  0  0  0  0  0  0  0  0  0  0
   -3.0345    0.1738    2.3653 H   0  0  0  0  0  0  0  0  0  0  0  0
   -2.6962    1.4423    1.1903 H   0  0  0  0  0  0  0  0  0  0  0  0
   -1.5511   -2.1331   -1.1486 H   0  0  0  0  0  0  0  0  0  0  0  0
   -0.7254   -0.9879   -2.1901 H   0  0  0  0  0  0  0  0  0  0  0  0
   -4.4850   -0.1434   -1.1765 H   0  0  0  0  0  0  0  0  0  0  0  0
   -4.4488    1.6242   -0.9190 H   0  0  0  0  0  0  0  0  0  0  0  0
    0.8039   -2.4490   -0.7629 H   0  0  0  0  0  0  0  0  0  0  0  0
    0.1753   -1.6496    0.6785 H   0  0  0  0  0  0  0  0  0  0  0  0
    1.5926   -0.2238   -1.6375 H   0  0  0  0  0  0  0  0  0  0  0  0
    1.0152    0.5492   -0.1594 H   0  0  0  0  0  0  0  0  0  0  0  0
    3.1156   -1.6781   -0.2615 H   0  0  0  0  0  0  0  0  0  0  0  0
    2.5393   -0.8794    1.2050 H   0  0  0  0  0  0  0  0  0  0  0  0
    3.3755    1.3189    0.3273 H   0  0  0  0  0  0  0  0  0  0  0  0
    3.9588    0.5133   -1.1303 H   0  0  0  0  0  0  0  0  0  0  0  0
    5.4679   -0.9219    0.2783 H   0  0  0  0  0  0  0  0  0  0  0  0
    4.8909   -0.0936    1.7271 H   0  0  0  0  0  0  0  0  0  0  0  0
    6.3558    1.2360   -0.6140 H   0  0  0  0  0  0  0  0  0  0  0  0
    5.7729    2.0774    0.8344 H   0  0  0  0  0  0  0  0  0  0  0  0
    7.0457    0.8527    0.9719 H   0  0  0  0  0  0  0  0  0  0  0  0
  1  5  1  0
  1  7  1  0
  2  5  2  0
  3  6  1  0
  4 10  1  0
  5  8  1  0
  6  7  1  0
  6 10  1  0
  8  9  1  0
  9 11  1  0
 11 12  1  0
 12 13  1  0
 13 14  1  0
 14 15  1  0
 15 16  1  0
 16 17  1  0
 19 23  1  0
 20 18  1  0
 21 18  2  0
 22 19  2  0
 23 25  1  0
 24 20  1  0
 25 24  1  0
 26 29  1  0
 27 18  1  0
 28 19  1  0
 29 24  1  0
 30 27  1  0
 31 28  1  0
 32 35  1  0
 33 34  1  0
 34 37  1  0
 35 39  1  0
 36 31  1  0
 37 36  1  0
 38 30  1  0
 39 38  1  0
 40 32  1  0
 41 33  1  0
 42 46  1  0
 42 48  1  0
 43 46  2  0
 44 47  1  0
 45 50  1  0
 46 49  1  0
 47 48  1  0
 47 50  1  0
 49 51  1  0
 51 52  1  0
 52 53  1  0
 53 54  1  0
 54 55  1  0
 55 56  1  0
  3 57  1  0
  4 58  1  0
  6 59  1  6
  7 60  1  0
  7 61  1  0
  8 62  1  0
  8 63  1  0
  9 64  1  0
  9 65  1  0
 10 66  1  0
 10 67  1  0
 11 68  1  0
 11 69  1  0
 12 70  1  0
 12 71  1  0
 13 72  1  0
 13 73  1  0
 14 74  1  0
 14 75  1  0
 15 76  1  0
 15 77  1  0
 16 78  1  0
 16 79  1  0
 17 80  1  0
 17 81  1  0
 17 82  1  0
 24 83  1  1
 25 84  1  0
 25 85  1  0
 26 86  1  0
 27 87  1  0
 27 88  1  0
 28 89  1  0
 28 90  1  0
 29 91  1  0
 29 92  1  0
 30 93  1  0
 30 94  1  0
 31 95  1  0
 31 96  1  0
 32 97  1  0
 32 98  1  0
 33 99  1  0
 33100  1  0
 34101  1  0
 34102  1  0
 35103  1  0
 35104  1  0
 36105  1  0
 36106  1  0
 37107  1  0
 37108  1  0
 38109  1  0
 38110  1  0
 39111  1  0
 39112  1  0
 40113  1  0
 40114  1  0
 40115  1  0
 41116  1  0
 41117  1  0
 41118  1  0
 44119  1  0
 45120  1  0
 47121  1  1
 48122  1  0
 48123  1  0
 49124  1  0
 49125  1  0
 50126  1  0
 50127  1  0
 51128  1  0
 51129  1  0
 52130  1  0
 52131  1  0
 53132  1  0
 53133  1  0
 54134  1  0
 54135  1  0
 55136  1  0
 55137  1  0
 56138  1  0
 56139  1  0
 56140  1  0
M  END
$$$$
