
     RDKit          3D

 22 14  0  0  0  0  0  0  0  0999 V2000
    1.5231   -0.7813   -0.0423 O   0  0  0  0  0  0  0  0  0  0  0  0
   -1.4892   -0.8463   -0.0111 O   0  0  0  0  0  0  0  0  0  0  0  0
   -0.0389    1.5933   -0.0284 O   0  0  0  0  0  0  0  0  0  0  0  0
    0.0050    0.0343    0.0817 Si  0  0  0  0  0  4  0  0  0  0  0  0
    0.0000    0.0000    0.0000 Al  0  0  0  0  0 15  0  0  0  0  0  0
    0.0000    0.0000    0.0000 Al  0  0  0  0  0 15  0  0  0  0  0  0
    0.0000    0.0000    0.0000 Mg  0  0  0  0  0 15  0  0  0  0  0  0
   -1.4567   -0.9012   -0.0476 O   0  0  0  0  0  0  0  0  0  0  0  0
    1.5612   -0.7294    0.0579 O   0  0  0  0  0  0  0  0  0  0  0  0
   -0.1159    1.5926   -0.0002 O   0  0  0  0  0  0  0  0  0  0  0  0
    0.0113    0.0380   -0.0101 Si  0  0  0  0  0  4  0  0  0  0  0  0
    1.5209   -0.7891   -0.0451 O   0  0  0  0  0  0  0  0  0  0  0  0
   -1.4914   -0.8443   -0.0372 O   0  0  0  0  0  0  0  0  0  0  0  0
   -0.0316    1.5997   -0.0446 O   0  0  0  0  0  0  0  0  0  0  0  0
    0.0021    0.0337    0.1269 Si  0  0  0  0  0  4  0  0  0  0  0  0
   -0.0081    0.3901   -0.0000 O   0  0  0  0  0  0  0  0  0  0  0  0
    1.6048   -0.6420    0.0618 O   0  0  0  0  0  0  0  0  0  0  0  0
   -1.3897   -1.0014   -0.0320 O   0  0  0  0  0  0  0  0  0  0  0  0
   -0.2177    1.6011    0.0057 O   0  0  0  0  0  0  0  0  0  0  0  0
    0.0026    0.0423   -0.0356 Si  0  0  0  0  0  4  0  0  0  0  0  0
    0.8013   -0.1921    0.0000 H   0  0  0  0  0  0  0  0  0  0  0  0
   -0.7932   -0.1980   -0.0000 H   0  0  0  0  0  0  0  0  0  0  0  0
  4  1  1  0
  4  2  1  0
  4  3  2  0
 11  8  1  0
 11  9  1  0
 11 10  2  0
 15 12  1  0
 15 13  1  0
 15 14  2  0
 20 17  1  0
 20 18  1  0
 20 19  2  0
 16 21  1  0
 16 22  1  0
M  CHG  8   1  -1   2  -1   5   3   6   3   7   2   8  -1   9  -1  12  -1
M  CHG  3  13  -1  17  -1  18  -1
M  END
$$$$
