
     RDKit          3D

 22 14  0  0  0  0  0  0  0  0999 V2000
    1.5349   -0.7636   -0.0400 O   0  0  0  0  0  0  0  0  0  0  0  0
   -1.4670   -0.8796   -0.0303 O   0  0  0  0  0  0  0  0  0  0  0  0
   -0.0674    1.6010   -0.0386 O   0  0  0  0  0  0  0  0  0  0  0  0
   -0.0005    0.0422    0.1089 Si  0  0  0  0  0  4  0  0  0  0  0  0
    0.0000    0.0000    0.0000 Al  0  0  0  0  0 15  0  0  0  0  0  0
    0.0000    0.0000    0.0000 Al  0  0  0  0  0 15  0  0  0  0  0  0
    0.0000    0.0000    0.0000 Mg  0  0  0  0  0 15  0  0  0  0  0  0
    1.6048   -0.5916   -0.0446 O   0  0  0  0  0  0  0  0  0  0  0  0
   -1.3427   -1.0375   -0.0370 O   0  0  0  0  0  0  0  0  0  0  0  0
   -0.2702    1.5828   -0.0446 O   0  0  0  0  0  0  0  0  0  0  0  0
    0.0081    0.0463    0.1262 Si  0  0  0  0  0  4  0  0  0  0  0  0
   -1.5065   -0.8100   -0.0444 O   0  0  0  0  0  0  0  0  0  0  0  0
    1.5181   -0.8002   -0.0475 O   0  0  0  0  0  0  0  0  0  0  0  0
   -0.0082    1.5885   -0.0485 O   0  0  0  0  0  0  0  0  0  0  0  0
   -0.0035    0.0216    0.1404 Si  0  0  0  0  0  4  0  0  0  0  0  0
   -0.0031    0.3642   -0.0000 O   0  0  0  0  0  0  0  0  0  0  0  0
    1.6364   -0.5541    0.0624 O   0  0  0  0  0  0  0  0  0  0  0  0
   -1.3325   -1.0641   -0.0308 O   0  0  0  0  0  0  0  0  0  0  0  0
   -0.3145    1.5802    0.0019 O   0  0  0  0  0  0  0  0  0  0  0  0
    0.0106    0.0381   -0.0335 Si  0  0  0  0  0  4  0  0  0  0  0  0
    0.8245   -0.1811    0.0000 H   0  0  0  0  0  0  0  0  0  0  0  0
   -0.8214   -0.1831   -0.0000 H   0  0  0  0  0  0  0  0  0  0  0  0
  4  1  1  0
  4  2  1  0
  4  3  2  0
 11  8  1  0
 11  9  1  0
 11 10  2  0
 15 12  1  0
 15 13  1  0
 15 14  2  0
 20 17  1  0
 20 18  1  0
 20 19  2  0
 16 21  1  0
 16 22  1  0
M  CHG  8   1  -1   2  -1   5   3   6   3   7   2   8  -1   9  -1  12  -1
M  CHG  3  13  -1  17  -1  18  -1
M  END
$$$$
