
     RDKit          3D

 22 14  0  0  0  0  0  0  0  0999 V2000
    1.6824   -0.3685   -0.0405 O   0  0  0  0  0  0  0  0  0  0  0  0
   -1.1720   -1.2182   -0.0226 O   0  0  0  0  0  0  0  0  0  0  0  0
   -0.5087    1.5380   -0.0305 O   0  0  0  0  0  0  0  0  0  0  0  0
   -0.0017    0.0486    0.0935 Si  0  0  0  0  0  4  0  0  0  0  0  0
    0.0000    0.0000    0.0000 Al  0  0  0  0  0 15  0  0  0  0  0  0
    0.0000    0.0000    0.0000 Al  0  0  0  0  0 15  0  0  0  0  0  0
    0.0000    0.0000    0.0000 Mg  0  0  0  0  0 15  0  0  0  0  0  0
    1.5237   -0.7713   -0.0574 O   0  0  0  0  0  0  0  0  0  0  0  0
   -1.4620   -0.8785   -0.0528 O   0  0  0  0  0  0  0  0  0  0  0  0
   -0.0602    1.6036   -0.0615 O   0  0  0  0  0  0  0  0  0  0  0  0
   -0.0016    0.0461    0.1717 Si  0  0  0  0  0  4  0  0  0  0  0  0
   -1.4516   -0.8904   -0.0565 O   0  0  0  0  0  0  0  0  0  0  0  0
    1.5245   -0.7795   -0.0195 O   0  0  0  0  0  0  0  0  0  0  0  0
   -0.0757    1.6191   -0.0442 O   0  0  0  0  0  0  0  0  0  0  0  0
    0.0028    0.0508    0.1202 Si  0  0  0  0  0  4  0  0  0  0  0  0
   -0.0020    0.3739   -0.0000 O   0  0  0  0  0  0  0  0  0  0  0  0
   -1.4957   -0.8545   -0.0361 O   0  0  0  0  0  0  0  0  0  0  0  0
    1.5449   -0.7790   -0.0229 O   0  0  0  0  0  0  0  0  0  0  0  0
   -0.0517    1.6002   -0.0323 O   0  0  0  0  0  0  0  0  0  0  0  0
    0.0025    0.0333    0.0912 Si  0  0  0  0  0  4  0  0  0  0  0  0
   -0.8103   -0.1876   -0.0000 H   0  0  0  0  0  0  0  0  0  0  0  0
    0.8123   -0.1862    0.0000 H   0  0  0  0  0  0  0  0  0  0  0  0
  4  1  1  0
  4  2  1  0
  4  3  2  0
 11  8  1  0
 11  9  1  0
 11 10  2  0
 15 12  1  0
 15 13  1  0
 15 14  2  0
 20 17  1  0
 20 18  1  0
 20 19  2  0
 16 21  1  0
 16 22  1  0
M  CHG  8   1  -1   2  -1   5   3   6   3   7   2   8  -1   9  -1  12  -1
M  CHG  3  13  -1  17  -1  18  -1
M  END
$$$$
