
     RDKit          3D

 21 16  0  0  0  0  0  0  0  0999 V2000
   -0.0006    0.3978    0.0000 O   0  0  0  0  0  0  0  0  0  0  0  0
    0.8680   -0.0703   -0.1125 C   0  0  0  0  0  0  0  0  0  0  0  0
    1.4960    1.0240   -0.0567 O   0  0  0  0  0  0  0  0  0  0  0  0
    1.2971   -1.2418   -0.3044 O   0  0  0  0  0  0  0  0  0  0  0  0
   -0.6338    0.0466    0.0816 C   0  0  0  0  0  0  0  0  0  0  0  0
    0.8705    0.1135    0.0208 C   0  0  0  0  0  0  0  0  0  0  0  0
    1.5560   -0.8775   -0.3552 O   0  0  0  0  0  0  0  0  0  0  0  0
    1.2432    1.2505    0.4249 O   0  0  0  0  0  0  0  0  0  0  0  0
   -0.6346   -0.0872   -0.0168 C   0  0  0  0  0  0  0  0  0  0  0  0
    0.0000    0.0000    0.0000 Zn  0  0  0  0  0 15  0  0  0  0  0  0
   -0.0009    0.3978    0.0000 O   0  0  0  0  0  0  0  0  0  0  0  0
   -0.7632   -0.2000    0.0000 H   0  0  0  0  0  0  0  0  0  0  0  0
    0.7638   -0.1978    0.0000 H   0  0  0  0  0  0  0  0  0  0  0  0
   -1.1206   -0.9317    0.0250 H   0  0  0  0  0  0  0  0  0  0  0  0
   -1.0588    0.6899   -0.6946 H   0  0  0  0  0  0  0  0  0  0  0  0
   -0.8479    0.4832    1.0617 H   0  0  0  0  0  0  0  0  0  0  0  0
   -0.8946   -1.0885   -0.3734 H   0  0  0  0  0  0  0  0  0  0  0  0
   -1.0507    0.0414    0.9869 H   0  0  0  0  0  0  0  0  0  0  0  0
   -1.0898    0.6478   -0.6872 H   0  0  0  0  0  0  0  0  0  0  0  0
    0.7639   -0.1972    0.0000 H   0  0  0  0  0  0  0  0  0  0  0  0
   -0.7630   -0.2006    0.0000 H   0  0  0  0  0  0  0  0  0  0  0  0
  3  2  1  0
  4  2  2  0
  5  2  1  0
  7  6  1  0
  8  6  2  0
  9  6  1  0
  1 12  1  0
  1 13  1  0
  5 14  1  0
  5 15  1  0
  5 16  1  0
  9 17  1  0
  9 18  1  0
  9 19  1  0
 11 20  1  0
 11 21  1  0
M  CHG  3   3  -1   7  -1  10   2
M  END
$$$$
