
     RDKit          3D

 11  6  0  0  0  0  0  0  0  0999 V2000
    0.0000    0.0000    0.0000 O   0  0  0  0  0  0  0  0  0  0  0  0
   -0.0577    0.0404    0.0096 C   0  0  0  0  0  0  0  0  0  0  0  0
   -0.8962   -1.0465   -0.0895 O   0  0  0  0  0  0  0  0  0  0  0  0
   -0.4510    1.2034    0.2014 O   0  0  0  0  0  0  0  0  0  0  0  0
    1.4049   -0.1973   -0.1215 C   0  0  0  0  0  0  0  0  0  0  0  0
   -0.0141    0.0337   -0.0004 C   0  0  0  0  0  0  0  0  0  0  0  0
   -1.0299   -0.9240   -0.0311 O   0  0  0  0  0  0  0  0  0  0  0  0
   -0.3721    1.2317   -0.0114 O   0  0  0  0  0  0  0  0  0  0  0  0
    1.4161   -0.3413    0.0430 C   0  0  0  0  0  0  0  0  0  0  0  0
    0.0000    0.0000    0.0000 Zn  0  0  0  0  0 15  0  0  0  0  0  0
    0.0000    0.0000    0.0000 O   0  0  0  0  0  0  0  0  0  0  0  0
  3  2  1  0
  4  2  2  0
  5  2  1  0
  7  6  1  0
  8  6  2  0
  9  6  1  0
M  CHG  3   3  -1   7  -1  10   2
M  END
