
     RDKit          3D

 21 16  0  0  0  0  0  0  0  0999 V2000
   -0.0006    0.3978    0.0000 O   0  0  0  0  0  0  0  0  0  0  0  0
    0.8450    0.0904   -0.2208 C   0  0  0  0  0  0  0  0  0  0  0  0
    1.5723   -0.9020    0.0647 O   0  0  0  0  0  0  0  0  0  0  0  0
    1.1479    1.1848   -0.7719 O   0  0  0  0  0  0  0  0  0  0  0  0
   -0.6175   -0.0616    0.1594 C   0  0  0  0  0  0  0  0  0  0  0  0
    0.8720    0.0668   -0.0779 C   0  0  0  0  0  0  0  0  0  0  0  0
    1.5020   -1.0096    0.1213 O   0  0  0  0  0  0  0  0  0  0  0  0
    1.3043    1.2162   -0.3699 O   0  0  0  0  0  0  0  0  0  0  0  0
   -0.6368   -0.0442    0.0558 C   0  0  0  0  0  0  0  0  0  0  0  0
    0.0000    0.0000    0.0000 Zn  0  0  0  0  0 15  0  0  0  0  0  0
   -0.0034    0.3978    0.0000 O   0  0  0  0  0  0  0  0  0  0  0  0
    0.7638   -0.1977    0.0000 H   0  0  0  0  0  0  0  0  0  0  0  0
   -0.7632   -0.2001    0.0000 H   0  0  0  0  0  0  0  0  0  0  0  0
   -1.1952    0.8265   -0.1146 H   0  0  0  0  0  0  0  0  0  0  0  0
   -1.0466   -0.9259   -0.3563 H   0  0  0  0  0  0  0  0  0  0  0  0
   -0.7059   -0.2121    1.2395 H   0  0  0  0  0  0  0  0  0  0  0  0
   -1.0199   -0.7746   -0.6631 H   0  0  0  0  0  0  0  0  0  0  0  0
   -0.8960   -0.3711    1.0672 H   0  0  0  0  0  0  0  0  0  0  0  0
   -1.1256    0.9164   -0.1333 H   0  0  0  0  0  0  0  0  0  0  0  0
   -0.7617   -0.2054    0.0000 H   0  0  0  0  0  0  0  0  0  0  0  0
    0.7651   -0.1924    0.0000 H   0  0  0  0  0  0  0  0  0  0  0  0
  3  2  1  0
  4  2  2  0
  5  2  1  0
  7  6  1  0
  8  6  2  0
  9  6  1  0
  1 12  1  0
  1 13  1  0
  5 14  1  0
  5 15  1  0
  5 16  1  0
  9 17  1  0
  9 18  1  0
  9 19  1  0
 11 20  1  0
 11 21  1  0
M  CHG  3   3  -1   7  -1  10   2
M  END
$$$$
