
     RDKit          3D

 21 16  0  0  0  0  0  0  0  0999 V2000
   -0.0001    0.3978    0.0000 O   0  0  0  0  0  0  0  0  0  0  0  0
    0.8731    0.0898   -0.0233 C   0  0  0  0  0  0  0  0  0  0  0  0
    1.5234   -0.9756   -0.2116 O   0  0  0  0  0  0  0  0  0  0  0  0
    1.2848    1.2729    0.1379 O   0  0  0  0  0  0  0  0  0  0  0  0
   -0.6367   -0.0702    0.0163 C   0  0  0  0  0  0  0  0  0  0  0  0
    0.8484    0.0619   -0.2177 C   0  0  0  0  0  0  0  0  0  0  0  0
    1.5447   -0.9467    0.0872 O   0  0  0  0  0  0  0  0  0  0  0  0
    1.1861    1.1381   -0.7843 O   0  0  0  0  0  0  0  0  0  0  0  0
   -0.6198   -0.0409    0.1571 C   0  0  0  0  0  0  0  0  0  0  0  0
    0.0000    0.0000    0.0000 Zn  0  0  0  0  0 15  0  0  0  0  0  0
   -0.0008    0.3978    0.0000 O   0  0  0  0  0  0  0  0  0  0  0  0
   -0.7634   -0.1991    0.0000 H   0  0  0  0  0  0  0  0  0  0  0  0
    0.7635   -0.1987    0.0000 H   0  0  0  0  0  0  0  0  0  0  0  0
   -1.0939    0.5315   -0.7749 H   0  0  0  0  0  0  0  0  0  0  0  0
   -1.0196    0.2656    0.9846 H   0  0  0  0  0  0  0  0  0  0  0  0
   -0.9311   -1.1140   -0.1290 H   0  0  0  0  0  0  0  0  0  0  0  0
   -0.7178   -0.1744    1.2385 H   0  0  0  0  0  0  0  0  0  0  0  0
   -1.1691    0.8605   -0.1313 H   0  0  0  0  0  0  0  0  0  0  0  0
   -1.0724   -0.8986   -0.3495 H   0  0  0  0  0  0  0  0  0  0  0  0
    0.7639   -0.1974    0.0000 H   0  0  0  0  0  0  0  0  0  0  0  0
   -0.7631   -0.2004    0.0000 H   0  0  0  0  0  0  0  0  0  0  0  0
  3  2  1  0
  4  2  2  0
  5  2  1  0
  7  6  1  0
  8  6  2  0
  9  6  1  0
  1 12  1  0
  1 13  1  0
  5 14  1  0
  5 15  1  0
  5 16  1  0
  9 17  1  0
  9 18  1  0
  9 19  1  0
 11 20  1  0
 11 21  1  0
M  CHG  3   3  -1   7  -1  10   2
M  END
$$$$
