
     RDKit          3D

 21 16  0  0  0  0  0  0  0  0999 V2000
   -0.0017    0.3978    0.0000 O   0  0  0  0  0  0  0  0  0  0  0  0
    0.8668    0.0099    0.1398 C   0  0  0  0  0  0  0  0  0  0  0  0
    1.4185    1.1414    0.0473 O   0  0  0  0  0  0  0  0  0  0  0  0
    1.3700   -1.1180    0.4038 O   0  0  0  0  0  0  0  0  0  0  0  0
   -0.6324   -0.0026   -0.1028 C   0  0  0  0  0  0  0  0  0  0  0  0
    0.8719    0.0702   -0.0764 C   0  0  0  0  0  0  0  0  0  0  0  0
    1.4946   -1.0273   -0.0230 O   0  0  0  0  0  0  0  0  0  0  0  0
    1.3111    1.2445   -0.2222 O   0  0  0  0  0  0  0  0  0  0  0  0
   -0.6366   -0.0465    0.0554 C   0  0  0  0  0  0  0  0  0  0  0  0
    0.0000    0.0000    0.0000 Zn  0  0  0  0  0 15  0  0  0  0  0  0
   -0.0052    0.3978    0.0000 O   0  0  0  0  0  0  0  0  0  0  0  0
   -0.7626   -0.2021    0.0000 H   0  0  0  0  0  0  0  0  0  0  0  0
    0.7643   -0.1957    0.0000 H   0  0  0  0  0  0  0  0  0  0  0  0
   -0.8664   -0.6619   -0.9440 H   0  0  0  0  0  0  0  0  0  0  0  0
   -1.1490   -0.3680    0.7898 H   0  0  0  0  0  0  0  0  0  0  0  0
   -1.0074    0.9991   -0.3338 H   0  0  0  0  0  0  0  0  0  0  0  0
   -0.8903   -0.5116    1.0127 H   0  0  0  0  0  0  0  0  0  0  0  0
   -1.1181    0.9351    0.0096 H   0  0  0  0  0  0  0  0  0  0  0  0
   -1.0327   -0.6643   -0.7561 H   0  0  0  0  0  0  0  0  0  0  0  0
   -0.7608   -0.2088    0.0000 H   0  0  0  0  0  0  0  0  0  0  0  0
    0.7660   -0.1890    0.0000 H   0  0  0  0  0  0  0  0  0  0  0  0
  3  2  1  0
  4  2  2  0
  5  2  1  0
  7  6  1  0
  8  6  2  0
  9  6  1  0
  1 12  1  0
  1 13  1  0
  5 14  1  0
  5 15  1  0
  5 16  1  0
  9 17  1  0
  9 18  1  0
  9 19  1  0
 11 20  1  0
 11 21  1  0
M  CHG  3   3  -1   7  -1  10   2
M  END
$$$$
