
     RDKit          3D

 77 76  0  0  0  0  0  0  0  0999 V2000
   -1.8995    0.6588   -0.4037 C   0  0  0  0  0  0  0  0  0  0  0  0
   -2.8753    1.2185   -1.2489 C   0  0  0  0  0  0  0  0  0  0  0  0
   -2.3217    0.1365    0.8279 C   0  0  0  0  0  0  0  0  0  0  0  0
    1.9010   -0.0539   -0.5937 N   0  0  0  0  0  0  0  0  0  0  0  0
   -3.6698    0.1656    1.1851 C   0  0  0  0  0  0  0  0  0  0  0  0
   -4.2171    1.2397   -0.8768 C   0  0  0  0  0  0  0  0  0  0  0  0
   -4.6292    0.7139    0.3416 C   0  0  0  0  0  0  0  0  0  0  0  0
   -0.4500    0.6881   -0.8426 C   0  0  1  0  0  0  0  0  0  0  0  0
    2.9664   -0.7870    0.1203 C   0  0  0  0  0  0  0  0  0  0  0  0
    0.5657   -0.0860    0.0412 C   0  0  0  0  0  0  0  0  0  0  0  0
   -4.0070   -0.3607    2.3987 O   0  0  0  0  0  0  0  0  0  0  0  0
   -5.1070    1.7977   -1.7475 O   0  0  0  0  0  0  0  0  0  0  0  0
   -0.3596    0.1643   -2.1759 O   0  0  0  0  0  0  0  0  0  0  0  0
    2.6403   -2.2815    0.2709 C   0  0  0  0  0  0  0  0  0  0  0  0
    3.2573   -0.1714    1.4985 C   0  0  0  0  0  0  0  0  0  0  0  0
    4.2311   -0.6533   -0.7500 C   0  0  0  0  0  0  0  0  0  0  0  0
   -0.0107    0.4553   -0.0064 S   0  0  0  0  0  0  0  0  0  0  0  0
    1.2299   -0.5400    0.2022 O   0  0  0  0  0  0  0  0  0  0  0  0
   -1.2162   -0.5875   -0.1869 O   0  0  0  0  0  0  0  0  0  0  0  0
    0.2088    1.1194   -1.2659 O   0  0  0  0  0  0  0  0  0  0  0  0
   -0.2520    1.1462    1.2347 O   0  0  0  0  0  0  0  0  0  0  0  0
    1.9000   -0.2870   -0.2684 C   0  0  0  0  0  0  0  0  0  0  0  0
    2.1623    0.7034   -1.2298 C   0  0  0  0  0  0  0  0  0  0  0  0
    2.9617   -0.7497    0.5255 C   0  0  0  0  0  0  0  0  0  0  0  0
   -1.6780   -0.4302    1.1017 N   0  0  0  0  0  0  0  0  0  0  0  0
    4.2439   -0.2311    0.3512 C   0  0  0  0  0  0  0  0  0  0  0  0
    3.4498    1.2099   -1.3857 C   0  0  0  0  0  0  0  0  0  0  0  0
    4.4985    0.7501   -0.5988 C   0  0  0  0  0  0  0  0  0  0  0  0
    0.4885   -0.8054   -0.0963 C   0  0  2  0  0  0  0  0  0  0  0  0
   -2.8554   -0.0880    0.2761 C   0  0  0  0  0  0  0  0  0  0  0  0
   -0.3956    0.1877    0.7004 C   0  0  0  0  0  0  0  0  0  0  0  0
    5.2915   -0.6686    1.1085 O   0  0  0  0  0  0  0  0  0  0  0  0
    3.6427    2.1706   -2.3349 O   0  0  0  0  0  0  0  0  0  0  0  0
    0.4840   -2.0638    0.5917 O   0  0  0  0  0  0  0  0  0  0  0  0
   -3.9983   -0.9905    0.7805 C   0  0  0  0  0  0  0  0  0  0  0  0
   -2.6457   -0.3673   -1.2196 C   0  0  0  0  0  0  0  0  0  0  0  0
   -3.2712    1.3793    0.4827 C   0  0  0  0  0  0  0  0  0  0  0  0
   -2.5836    1.6319   -2.2130 H   0  0  0  0  0  0  0  0  0  0  0  0
   -1.6207   -0.3039    1.5305 H   0  0  0  0  0  0  0  0  0  0  0  0
    2.1877    0.9220   -0.7000 H   0  0  0  0  0  0  0  0  0  0  0  0
   -5.6732    0.7362    0.6287 H   0  0  0  0  0  0  0  0  0  0  0  0
   -0.1383    1.7398   -0.8877 H   0  0  0  0  0  0  0  0  0  0  0  0
    0.5946    0.3587    1.0412 H   0  0  0  0  0  0  0  0  0  0  0  0
    0.2302   -1.1257    0.1208 H   0  0  0  0  0  0  0  0  0  0  0  0
   -4.9716   -0.3072    2.5063 H   0  0  0  0  0  0  0  0  0  0  0  0
   -6.0054    1.6781   -1.3995 H   0  0  0  0  0  0  0  0  0  0  0  0
    0.5661   -0.1440   -2.2554 H   0  0  0  0  0  0  0  0  0  0  0  0
    2.3800   -2.7309   -0.6945 H   0  0  0  0  0  0  0  0  0  0  0  0
    3.5022   -2.8313    0.6673 H   0  0  0  0  0  0  0  0  0  0  0  0
    1.8083   -2.4546    0.9614 H   0  0  0  0  0  0  0  0  0  0  0  0
    4.1406   -0.6340    1.9550 H   0  0  0  0  0  0  0  0  0  0  0  0
    3.4535    0.9047    1.4211 H   0  0  0  0  0  0  0  0  0  0  0  0
    2.4238   -0.3136    2.1947 H   0  0  0  0  0  0  0  0  0  0  0  0
    5.0800   -1.1799   -0.2986 H   0  0  0  0  0  0  0  0  0  0  0  0
    4.5242    0.3958   -0.8744 H   0  0  0  0  0  0  0  0  0  0  0  0
    4.0759   -1.0775   -1.7491 H   0  0  0  0  0  0  0  0  0  0  0  0
    1.5692   -0.7680   -0.6883 H   0  0  0  0  0  0  0  0  0  0  0  0
   -1.5290   -0.8254    0.7105 H   0  0  0  0  0  0  0  0  0  0  0  0
    1.3650    1.0843   -1.8639 H   0  0  0  0  0  0  0  0  0  0  0  0
    2.7742   -1.5153    1.2740 H   0  0  0  0  0  0  0  0  0  0  0  0
   -1.8765   -0.1462    2.0647 H   0  0  0  0  0  0  0  0  0  0  0  0
    5.5062    1.1347   -0.7101 H   0  0  0  0  0  0  0  0  0  0  0  0
    0.0642   -0.9985   -1.0871 H   0  0  0  0  0  0  0  0  0  0  0  0
   -0.5171    1.1365    0.1679 H   0  0  0  0  0  0  0  0  0  0  0  0
    0.1303    0.4327    1.6332 H   0  0  0  0  0  0  0  0  0  0  0  0
    4.9734   -1.3906    1.6770 H   0  0  0  0  0  0  0  0  0  0  0  0
    4.5877    2.3960   -2.3525 H   0  0  0  0  0  0  0  0  0  0  0  0
   -0.4390   -2.1424    0.9120 H   0  0  0  0  0  0  0  0  0  0  0  0
   -4.9250   -0.8024    0.2258 H   0  0  0  0  0  0  0  0  0  0  0  0
   -3.7508   -2.0520    0.6593 H   0  0  0  0  0  0  0  0  0  0  0  0
   -4.2107   -0.8163    1.8421 H   0  0  0  0  0  0  0  0  0  0  0  0
   -2.3373   -1.4050   -1.3916 H   0  0  0  0  0  0  0  0  0  0  0  0
   -1.8906    0.2936   -1.6594 H   0  0  0  0  0  0  0  0  0  0  0  0
   -3.5743   -0.2079   -1.7805 H   0  0  0  0  0  0  0  0  0  0  0  0
   -4.2143    1.5942   -0.0336 H   0  0  0  0  0  0  0  0  0  0  0  0
   -3.4196    1.6072    1.5450 H   0  0  0  0  0  0  0  0  0  0  0  0
   -2.5243    2.0781    0.0925 H   0  0  0  0  0  0  0  0  0  0  0  0
  2  1  2  0
  3  1  1  0
  4 10  1  0
  5  3  2  0
  6  2  1  0
  7  5  1  0
  8  1  1  0
  9  4  1  0
 10  8  1  0
 11  5  1  0
 12  6  1  0
 13  8  1  0
 14  9  1  0
 15  9  1  0
 16  9  1  0
  6  7  2  0
 18 17  1  0
 19 17  1  0
 20 17  2  0
 21 17  2  0
 23 22  2  0
 24 22  1  0
 25 31  1  0
 26 24  2  0
 27 23  1  0
 28 26  1  0
 29 22  1  0
 30 25  1  0
 31 29  1  0
 32 26  1  0
 33 27  1  0
 34 29  1  0
 35 30  1  0
 36 30  1  0
 37 30  1  0
 27 28  2  0
  2 38  1  0
  3 39  1  0
  4 40  1  0
  7 41  1  0
  8 42  1  6
 10 43  1  0
 10 44  1  0
 11 45  1  0
 12 46  1  0
 13 47  1  0
 14 48  1  0
 14 49  1  0
 14 50  1  0
 15 51  1  0
 15 52  1  0
 15 53  1  0
 16 54  1  0
 16 55  1  0
 16 56  1  0
 18 57  1  0
 19 58  1  0
 23 59  1  0
 24 60  1  0
 25 61  1  0
 28 62  1  0
 29 63  1  6
 31 64  1  0
 31 65  1  0
 32 66  1  0
 33 67  1  0
 34 68  1  0
 35 69  1  0
 35 70  1  0
 35 71  1  0
 36 72  1  0
 36 73  1  0
 36 74  1  0
 37 75  1  0
 37 76  1  0
 37 77  1  0
M  END
$$$$
