
     RDKit          3D

 77 76  0  0  0  0  0  0  0  0999 V2000
    1.7759    0.8602   -0.3445 C   0  0  0  0  0  0  0  0  0  0  0  0
    1.9807    0.1765   -1.5542 C   0  0  0  0  0  0  0  0  0  0  0  0
    2.5830    0.5324    0.7583 C   0  0  0  0  0  0  0  0  0  0  0  0
   -1.2973    0.3255   -0.4231 N   0  0  0  0  0  0  0  0  0  0  0  0
    3.5599   -0.4566    0.6414 C   0  0  0  0  0  0  0  0  0  0  0  0
    2.9529   -0.8167   -1.6440 C   0  0  0  0  0  0  0  0  0  0  0  0
    3.7493   -1.1406   -0.5527 C   0  0  0  0  0  0  0  0  0  0  0  0
    0.6739    1.8949   -0.2351 C   0  0  1  0  0  0  0  0  0  0  0  0
   -2.4981   -0.3046    0.1616 C   0  0  0  0  0  0  0  0  0  0  0  0
   -0.6153    1.3219    0.4177 C   0  0  0  0  0  0  0  0  0  0  0  0
    4.3627   -0.7826    1.6975 O   0  0  0  0  0  0  0  0  0  0  0  0
    3.0885   -1.4664   -2.8381 O   0  0  0  0  0  0  0  0  0  0  0  0
    1.1568    2.9858    0.5555 O   0  0  0  0  0  0  0  0  0  0  0  0
   -3.6095    0.7296    0.4150 C   0  0  0  0  0  0  0  0  0  0  0  0
   -3.0071   -1.3151   -0.8850 C   0  0  0  0  0  0  0  0  0  0  0  0
   -2.1822   -1.0681    1.4589 C   0  0  0  0  0  0  0  0  0  0  0  0
   -0.0384    0.3721    0.2456 S   0  0  0  0  0  0  0  0  0  0  0  0
   -0.9792   -0.1295   -0.9532 O   0  0  0  0  0  0  0  0  0  0  0  0
    1.0452   -0.8089    0.3073 O   0  0  0  0  0  0  0  0  0  0  0  0
   -0.8402    0.3148    1.4408 O   0  0  0  0  0  0  0  0  0  0  0  0
    0.6677    1.5492   -0.1913 O   0  0  0  0  0  0  0  0  0  0  0  0
    1.8124    0.4175   -0.3315 C   0  0  0  0  0  0  0  0  0  0  0  0
    2.4428   -0.5999   -1.0670 C   0  0  0  0  0  0  0  0  0  0  0  0
    2.6125    1.3863    0.2981 C   0  0  0  0  0  0  0  0  0  0  0  0
   -1.7036   -0.8062    0.7195 N   0  0  0  0  0  0  0  0  0  0  0  0
    4.0011    1.3129    0.2049 C   0  0  0  0  0  0  0  0  0  0  0  0
    3.8321   -0.6502   -1.1508 C   0  0  0  0  0  0  0  0  0  0  0  0
    4.6207    0.2996   -0.5148 C   0  0  0  0  0  0  0  0  0  0  0  0
    0.2994    0.5156   -0.2459 C   0  0  2  0  0  0  0  0  0  0  0  0
   -2.8990   -0.4481   -0.0608 C   0  0  0  0  0  0  0  0  0  0  0  0
   -0.3887   -0.8458    0.0607 C   0  0  0  0  0  0  0  0  0  0  0  0
    4.8023    2.2363    0.8115 O   0  0  0  0  0  0  0  0  0  0  0  0
    4.3844   -1.6564   -1.8852 O   0  0  0  0  0  0  0  0  0  0  0  0
   -0.1837    1.0561   -1.4770 O   0  0  0  0  0  0  0  0  0  0  0  0
   -3.1477    1.0687   -0.0365 C   0  0  0  0  0  0  0  0  0  0  0  0
   -2.9011   -0.9648   -1.5083 C   0  0  0  0  0  0  0  0  0  0  0  0
   -4.0738   -1.1254    0.6778 C   0  0  0  0  0  0  0  0  0  0  0  0
    1.3724    0.4023   -2.4279 H   0  0  0  0  0  0  0  0  0  0  0  0
    2.4396    1.0631    1.6977 H   0  0  0  0  0  0  0  0  0  0  0  0
   -0.6261   -0.4084   -0.6640 H   0  0  0  0  0  0  0  0  0  0  0  0
    4.5192   -1.9014   -0.6134 H   0  0  0  0  0  0  0  0  0  0  0  0
    0.4433    2.3021   -1.2260 H   0  0  0  0  0  0  0  0  0  0  0  0
   -0.3483    0.8975    1.3918 H   0  0  0  0  0  0  0  0  0  0  0  0
   -1.2876    2.1634    0.6169 H   0  0  0  0  0  0  0  0  0  0  0  0
    4.1289   -0.2055    2.4439 H   0  0  0  0  0  0  0  0  0  0  0  0
    3.6458   -2.2496   -2.6943 H   0  0  0  0  0  0  0  0  0  0  0  0
    0.4935    3.6961    0.4872 H   0  0  0  0  0  0  0  0  0  0  0  0
   -3.8407    1.2911   -0.5005 H   0  0  0  0  0  0  0  0  0  0  0  0
   -4.5325    0.2396    0.7439 H   0  0  0  0  0  0  0  0  0  0  0  0
   -3.3384    1.4533    1.1941 H   0  0  0  0  0  0  0  0  0  0  0  0
   -2.2502   -2.0713   -1.1167 H   0  0  0  0  0  0  0  0  0  0  0  0
   -3.8988   -1.8399   -0.5264 H   0  0  0  0  0  0  0  0  0  0  0  0
   -3.2776   -0.8162   -1.8213 H   0  0  0  0  0  0  0  0  0  0  0  0
   -3.0440   -1.6602    1.7846 H   0  0  0  0  0  0  0  0  0  0  0  0
   -1.9300   -0.3896    2.2821 H   0  0  0  0  0  0  0  0  0  0  0  0
   -1.3422   -1.7587    1.3192 H   0  0  0  0  0  0  0  0  0  0  0  0
   -1.6374   -0.7433   -0.5617 H   0  0  0  0  0  0  0  0  0  0  0  0
    1.7822   -0.5545   -0.2876 H   0  0  0  0  0  0  0  0  0  0  0  0
    1.8608   -1.3603   -1.5842 H   0  0  0  0  0  0  0  0  0  0  0  0
    2.1443    2.1959    0.8564 H   0  0  0  0  0  0  0  0  0  0  0  0
   -1.6555   -0.2345    1.5612 H   0  0  0  0  0  0  0  0  0  0  0  0
    5.7038    0.2713   -0.5729 H   0  0  0  0  0  0  0  0  0  0  0  0
    0.0351    1.2268    0.5444 H   0  0  0  0  0  0  0  0  0  0  0  0
    0.2515   -1.3945    0.7630 H   0  0  0  0  0  0  0  0  0  0  0  0
   -0.4325   -1.4685   -0.8415 H   0  0  0  0  0  0  0  0  0  0  0  0
    4.2433    2.9058    1.2421 H   0  0  0  0  0  0  0  0  0  0  0  0
    5.3515   -1.5405   -1.8891 H   0  0  0  0  0  0  0  0  0  0  0  0
    0.5297    1.0127   -2.1366 H   0  0  0  0  0  0  0  0  0  0  0  0
   -3.1883    1.4532    0.9887 H   0  0  0  0  0  0  0  0  0  0  0  0
   -2.3733    1.6260   -0.5668 H   0  0  0  0  0  0  0  0  0  0  0  0
   -4.1042    1.3154   -0.5121 H   0  0  0  0  0  0  0  0  0  0  0  0
   -2.7321   -2.0469   -1.5437 H   0  0  0  0  0  0  0  0  0  0  0  0
   -3.8675   -0.7698   -1.9891 H   0  0  0  0  0  0  0  0  0  0  0  0
   -2.1362   -0.4828   -2.1259 H   0  0  0  0  0  0  0  0  0  0  0  0
   -5.0300   -0.8943    0.1930 H   0  0  0  0  0  0  0  0  0  0  0  0
   -4.1451   -0.7931    1.7220 H   0  0  0  0  0  0  0  0  0  0  0  0
   -3.9654   -2.2179    0.6805 H   0  0  0  0  0  0  0  0  0  0  0  0
  2  1  2  0
  3  1  1  0
  4 10  1  0
  5  3  2  0
  6  2  1  0
  7  5  1  0
  8  1  1  0
  9  4  1  0
 10  8  1  0
 11  5  1  0
 12  6  1  0
 13  8  1  0
 14  9  1  0
 15  9  1  0
 16  9  1  0
  6  7  2  0
 18 17  1  0
 19 17  1  0
 20 17  2  0
 21 17  2  0
 23 22  2  0
 24 22  1  0
 25 31  1  0
 26 24  2  0
 27 23  1  0
 28 26  1  0
 29 22  1  0
 30 25  1  0
 31 29  1  0
 32 26  1  0
 33 27  1  0
 34 29  1  0
 35 30  1  0
 36 30  1  0
 37 30  1  0
 27 28  2  0
  2 38  1  0
  3 39  1  0
  4 40  1  0
  7 41  1  0
  8 42  1  6
 10 43  1  0
 10 44  1  0
 11 45  1  0
 12 46  1  0
 13 47  1  0
 14 48  1  0
 14 49  1  0
 14 50  1  0
 15 51  1  0
 15 52  1  0
 15 53  1  0
 16 54  1  0
 16 55  1  0
 16 56  1  0
 18 57  1  0
 19 58  1  0
 23 59  1  0
 24 60  1  0
 25 61  1  0
 28 62  1  0
 29 63  1  1
 31 64  1  0
 31 65  1  0
 32 66  1  0
 33 67  1  0
 34 68  1  0
 35 69  1  0
 35 70  1  0
 35 71  1  0
 36 72  1  0
 36 73  1  0
 36 74  1  0
 37 75  1  0
 37 76  1  0
 37 77  1  0
M  END
$$$$
