
     RDKit          3D

 77 76  0  0  0  0  0  0  0  0999 V2000
    1.9356   -0.4704   -0.3654 C   0  0  0  0  0  0  0  0  0  0  0  0
    1.8377   -1.3796    0.6978 C   0  0  0  0  0  0  0  0  0  0  0  0
    3.1321   -0.4383   -1.1076 C   0  0  0  0  0  0  0  0  0  0  0  0
   -1.5526    1.1857   -0.6576 N   0  0  0  0  0  0  0  0  0  0  0  0
    4.1798   -1.3025   -0.7958 C   0  0  0  0  0  0  0  0  0  0  0  0
    2.8975   -2.2364    0.9919 C   0  0  0  0  0  0  0  0  0  0  0  0
    4.0721   -2.2074    0.2512 C   0  0  0  0  0  0  0  0  0  0  0  0
    0.8331    0.5025   -0.7381 C   0  0  1  0  0  0  0  0  0  0  0  0
   -2.8570    1.2303    0.0228 C   0  0  0  0  0  0  0  0  0  0  0  0
   -0.5652    0.2362   -0.1190 C   0  0  0  0  0  0  0  0  0  0  0  0
    5.3455   -1.2871   -1.5037 O   0  0  0  0  0  0  0  0  0  0  0  0
    2.7381   -3.1014    2.0353 O   0  0  0  0  0  0  0  0  0  0  0  0
    1.2483    1.8249   -0.3582 O   0  0  0  0  0  0  0  0  0  0  0  0
   -3.7668    2.1067   -0.8587 C   0  0  0  0  0  0  0  0  0  0  0  0
   -3.4977   -0.1609    0.1516 C   0  0  0  0  0  0  0  0  0  0  0  0
   -2.7447    1.8869    1.4090 C   0  0  0  0  0  0  0  0  0  0  0  0
   -0.0479    0.4173   -0.1580 S   0  0  0  0  0  0  0  0  0  0  0  0
    1.2619   -0.5056   -0.0826 O   0  0  0  0  0  0  0  0  0  0  0  0
   -1.1500   -0.5544    0.4858 O   0  0  0  0  0  0  0  0  0  0  0  0
    0.1160    1.5124    0.7639 O   0  0  0  0  0  0  0  0  0  0  0  0
   -0.3484    0.5815   -1.5573 O   0  0  0  0  0  0  0  0  0  0  0  0
    1.9971    0.6161   -0.1308 C   0  0  0  0  0  0  0  0  0  0  0  0
    2.7012    1.5198    0.6786 C   0  0  0  0  0  0  0  0  0  0  0  0
    2.5487   -0.6551   -0.3645 C   0  0  0  0  0  0  0  0  0  0  0  0
   -1.8029    0.7615   -0.5831 N   0  0  0  0  0  0  0  0  0  0  0  0
    3.7765   -0.9967    0.1990 C   0  0  0  0  0  0  0  0  0  0  0  0
    3.9269    1.1578    1.2311 C   0  0  0  0  0  0  0  0  0  0  0  0
    4.4736   -0.0982    0.9977 C   0  0  0  0  0  0  0  0  0  0  0  0
    0.6606    1.0087   -0.7226 C   0  0  2  0  0  0  0  0  0  0  0  0
   -3.0026    0.0175   -0.1652 C   0  0  0  0  0  0  0  0  0  0  0  0
   -0.5237    0.3022   -0.0177 C   0  0  0  0  0  0  0  0  0  0  0  0
    4.3367   -2.2221   -0.0138 O   0  0  0  0  0  0  0  0  0  0  0  0
    4.5681    2.0786    2.0061 O   0  0  0  0  0  0  0  0  0  0  0  0
    0.6492    0.6781   -2.1196 O   0  0  0  0  0  0  0  0  0  0  0  0
   -4.2061    0.8188   -0.6970 C   0  0  0  0  0  0  0  0  0  0  0  0
   -3.0399   -1.3875   -0.7900 C   0  0  0  0  0  0  0  0  0  0  0  0
   -3.1241   -0.0851    1.3633 C   0  0  0  0  0  0  0  0  0  0  0  0
    0.9456   -1.4426    1.3149 H   0  0  0  0  0  0  0  0  0  0  0  0
    3.2293    0.2724   -1.9257 H   0  0  0  0  0  0  0  0  0  0  0  0
   -1.1224    2.1162   -0.6544 H   0  0  0  0  0  0  0  0  0  0  0  0
    4.9022   -2.8682    0.4730 H   0  0  0  0  0  0  0  0  0  0  0  0
    0.7279    0.4960   -1.8308 H   0  0  0  0  0  0  0  0  0  0  0  0
   -0.4933    0.3546    0.9672 H   0  0  0  0  0  0  0  0  0  0  0  0
   -0.8743   -0.7896   -0.3476 H   0  0  0  0  0  0  0  0  0  0  0  0
    5.2808   -0.6082   -2.1959 H   0  0  0  0  0  0  0  0  0  0  0  0
    3.5405   -3.6451    2.1087 H   0  0  0  0  0  0  0  0  0  0  0  0
    1.8198    1.7331    0.4236 H   0  0  0  0  0  0  0  0  0  0  0  0
   -3.3650    3.1213   -0.9682 H   0  0  0  0  0  0  0  0  0  0  0  0
   -4.7694    2.1969   -0.4248 H   0  0  0  0  0  0  0  0  0  0  0  0
   -3.8798    1.6813   -1.8632 H   0  0  0  0  0  0  0  0  0  0  0  0
   -4.5183   -0.0871    0.5460 H   0  0  0  0  0  0  0  0  0  0  0  0
   -2.9360   -0.8078    0.8346 H   0  0  0  0  0  0  0  0  0  0  0  0
   -3.5569   -0.6645   -0.8206 H   0  0  0  0  0  0  0  0  0  0  0  0
   -3.7361    2.0284    1.8559 H   0  0  0  0  0  0  0  0  0  0  0  0
   -2.2703    2.8731    1.3461 H   0  0  0  0  0  0  0  0  0  0  0  0
   -2.1598    1.2783    2.1062 H   0  0  0  0  0  0  0  0  0  0  0  0
    1.2907   -1.0330   -0.9073 H   0  0  0  0  0  0  0  0  0  0  0  0
   -1.1223   -0.4183    1.4555 H   0  0  0  0  0  0  0  0  0  0  0  0
    2.3004    2.5095    0.8859 H   0  0  0  0  0  0  0  0  0  0  0  0
    2.0094   -1.3638   -0.9881 H   0  0  0  0  0  0  0  0  0  0  0  0
   -1.7134    0.7322   -1.6037 H   0  0  0  0  0  0  0  0  0  0  0  0
    5.4272   -0.3916    1.4227 H   0  0  0  0  0  0  0  0  0  0  0  0
    0.5296    2.0962   -0.6574 H   0  0  0  0  0  0  0  0  0  0  0  0
   -0.4197   -0.7791   -0.1555 H   0  0  0  0  0  0  0  0  0  0  0  0
   -0.4848    0.5213    1.0549 H   0  0  0  0  0  0  0  0  0  0  0  0
    3.7491   -2.7377   -0.5912 H   0  0  0  0  0  0  0  0  0  0  0  0
    5.4012    1.6899    2.3212 H   0  0  0  0  0  0  0  0  0  0  0  0
    1.4796    1.0285   -2.4861 H   0  0  0  0  0  0  0  0  0  0  0  0
   -5.1526    0.3318   -0.4345 H   0  0  0  0  0  0  0  0  0  0  0  0
   -4.1769    0.9131   -1.7889 H   0  0  0  0  0  0  0  0  0  0  0  0
   -4.2300    1.8308   -0.2753 H   0  0  0  0  0  0  0  0  0  0  0  0
   -3.9901   -1.8886   -0.5691 H   0  0  0  0  0  0  0  0  0  0  0  0
   -2.2414   -2.0299   -0.4060 H   0  0  0  0  0  0  0  0  0  0  0  0
   -2.9395   -1.3429   -1.8805 H   0  0  0  0  0  0  0  0  0  0  0  0
   -4.0909   -0.5155    1.6515 H   0  0  0  0  0  0  0  0  0  0  0  0
   -2.3466   -0.7257    1.7926 H   0  0  0  0  0  0  0  0  0  0  0  0
   -3.0500    0.9014    1.8359 H   0  0  0  0  0  0  0  0  0  0  0  0
  2  1  2  0
  3  1  1  0
  4 10  1  0
  5  3  2  0
  6  2  1  0
  7  5  1  0
  8  1  1  0
  9  4  1  0
 10  8  1  0
 11  5  1  0
 12  6  1  0
 13  8  1  0
 14  9  1  0
 15  9  1  0
 16  9  1  0
  6  7  2  0
 18 17  1  0
 19 17  1  0
 20 17  2  0
 21 17  2  0
 23 22  2  0
 24 22  1  0
 25 31  1  0
 26 24  2  0
 27 23  1  0
 28 26  1  0
 29 22  1  0
 30 25  1  0
 31 29  1  0
 32 26  1  0
 33 27  1  0
 34 29  1  0
 35 30  1  0
 36 30  1  0
 37 30  1  0
 27 28  2  0
  2 38  1  0
  3 39  1  0
  4 40  1  0
  7 41  1  0
  8 42  1  6
 10 43  1  0
 10 44  1  0
 11 45  1  0
 12 46  1  0
 13 47  1  0
 14 48  1  0
 14 49  1  0
 14 50  1  0
 15 51  1  0
 15 52  1  0
 15 53  1  0
 16 54  1  0
 16 55  1  0
 16 56  1  0
 18 57  1  0
 19 58  1  0
 23 59  1  0
 24 60  1  0
 25 61  1  0
 28 62  1  0
 29 63  1  6
 31 64  1  0
 31 65  1  0
 32 66  1  0
 33 67  1  0
 34 68  1  0
 35 69  1  0
 35 70  1  0
 35 71  1  0
 36 72  1  0
 36 73  1  0
 36 74  1  0
 37 75  1  0
 37 76  1  0
 37 77  1  0
M  END
$$$$
