
     RDKit          3D

 98103  0  0  0  0  0  0  0  0999 V2000
   -0.9554    0.0231   -0.3009 N   0  0  0  0  0  0  0  0  0  0  0  0
   -2.1348   -0.3298    0.5431 C   0  0  1  0  0  0  0  0  0  0  0  0
    1.9676    0.5510    0.4865 N   0  0  0  0  0  0  0  0  0  0  0  0
   -3.1892    0.7859    0.6196 C   0  0  0  0  0  0  0  0  0  0  0  0
    0.1063   -1.0144   -0.2373 C   0  0  0  0  0  0  0  0  0  0  0  0
   -0.3911    1.3480    0.0756 C   0  0  0  0  0  0  0  0  0  0  0  0
   -2.8241   -1.6435    0.1341 C   0  0  0  0  0  0  0  0  0  0  0  0
   -3.5412    1.3374    1.8657 C   0  0  0  0  0  0  0  0  0  0  0  0
   -3.8430    1.2602   -0.5300 C   0  0  0  0  0  0  0  0  0  0  0  0
    1.2344   -0.7036    0.7674 C   0  0  0  0  0  0  0  0  0  0  0  0
    1.1121    1.4954   -0.2694 C   0  0  0  0  0  0  0  0  0  0  0  0
   -5.1610    2.7782    0.8055 C   0  0  0  0  0  0  0  0  0  0  0  0
   -4.8263    2.2490   -0.4383 C   0  0  0  0  0  0  0  0  0  0  0  0
   -4.5186    2.3321    1.9575 C   0  0  0  0  0  0  0  0  0  0  0  0
   -6.3787    3.9898    0.9088 Cl  0  0  0  0  0  0  0  0  0  0  0  0
    3.2333    0.2732   -0.2166 C   0  0  0  0  0  0  0  0  0  0  0  0
    7.2686   -0.8422   -1.6508 O   0  0  0  0  0  0  0  0  0  0  0  0
    5.3931    1.1326   -0.9982 O   0  0  0  0  0  0  0  0  0  0  0  0
   -2.8939   -2.0681   -1.2032 C   0  0  0  0  0  0  0  0  0  0  0  0
   -3.4394   -2.4394    1.1180 C   0  0  0  0  0  0  0  0  0  0  0  0
    7.6059    0.2461   -0.7863 C   0  0  0  0  0  0  0  0  0  0  0  0
    4.1444    1.5023   -0.3993 C   0  0  0  0  0  0  0  0  0  0  0  0
    6.3596    0.6978   -0.0311 C   0  0  0  0  0  0  0  0  0  0  0  0
   -4.0797   -3.6339    0.7767 C   0  0  0  0  0  0  0  0  0  0  0  0
   -3.5247   -3.2698   -1.5415 C   0  0  0  0  0  0  0  0  0  0  0  0
   -4.1191   -4.0508   -0.5515 C   0  0  0  0  0  0  0  0  0  0  0  0
    2.4852    1.2762   -1.1250 C   0  0  0  0  0  0  0  0  0  0  0  0
   -3.4961    1.4587    0.1343 C   0  0  0  0  0  0  0  0  0  0  0  0
   -1.4252    0.3176    0.7689 C   0  0  0  0  0  0  0  0  0  0  0  0
    1.1772    0.3587    0.7369 C   0  0  0  0  0  0  0  0  0  0  0  0
    1.3544    1.3102   -0.2918 C   0  0  0  0  0  0  0  0  0  0  0  0
   -2.2397    1.4697    0.7389 C   0  0  0  0  0  0  0  0  0  0  0  0
   -0.1119    0.3557    1.5518 C   0  0  0  0  0  0  0  0  0  0  0  0
    3.4795    0.3237   -0.8982 C   0  0  0  0  0  0  0  0  0  0  0  0
   -3.9638    0.2858   -0.4608 C   0  0  0  0  0  0  0  0  0  0  0  0
    2.5966    2.2352   -2.2466 C   0  0  0  0  0  0  0  0  0  0  0  0
   -4.3864    2.6383    0.0806 C   0  0  0  0  0  0  0  0  0  0  0  0
   -1.8862   -0.8691    0.1178 C   0  0  0  0  0  0  0  0  0  0  0  0
    2.2375   -0.5721    1.0094 C   0  0  0  0  0  0  0  0  0  0  0  0
    3.3807   -0.5808    0.1665 C   0  0  0  0  0  0  0  0  0  0  0  0
   -3.1699   -0.8665   -0.4961 C   0  0  0  0  0  0  0  0  0  0  0  0
    1.7099    3.0077   -2.5753 O   0  0  0  0  0  0  0  0  0  0  0  0
   -5.5944    2.6162    0.2267 O   0  0  0  0  0  0  0  0  0  0  0  0
    0.4014    2.2985   -0.4247 O   0  0  0  0  0  0  0  0  0  0  0  0
   -1.7726    2.6234    1.3103 O   0  0  0  0  0  0  0  0  0  0  0  0
    3.7731    2.1858   -2.8889 O   0  0  0  0  0  0  0  0  0  0  0  0
   -3.7364    3.7666   -0.2614 O   0  0  0  0  0  0  0  0  0  0  0  0
    2.2402   -1.4992    2.0826 C   0  0  0  0  0  0  0  0  0  0  0  0
   -1.1479   -2.0760    0.0472 C   0  0  0  0  0  0  0  0  0  0  0  0
    4.4294   -1.4923    0.3914 C   0  0  0  0  0  0  0  0  0  0  0  0
   -3.6516   -2.0170   -1.1457 C   0  0  0  0  0  0  0  0  0  0  0  0
   -1.6400   -3.2146   -0.6052 C   0  0  0  0  0  0  0  0  0  0  0  0
    3.2978   -2.3880    2.2990 C   0  0  0  0  0  0  0  0  0  0  0  0
   -2.8905   -3.1824   -1.2055 C   0  0  0  0  0  0  0  0  0  0  0  0
    4.3921   -2.3885    1.4536 C   0  0  0  0  0  0  0  0  0  0  0  0
   -1.7451   -0.4918    1.5604 H   0  0  0  0  0  0  0  0  0  0  0  0
    0.5428   -1.0949   -1.2442 H   0  0  0  0  0  0  0  0  0  0  0  0
   -0.2895   -2.0154   -0.0169 H   0  0  0  0  0  0  0  0  0  0  0  0
   -0.5069    1.5360    1.1527 H   0  0  0  0  0  0  0  0  0  0  0  0
   -0.9419    2.1331   -0.4574 H   0  0  0  0  0  0  0  0  0  0  0  0
   -3.0575    0.9952    2.7774 H   0  0  0  0  0  0  0  0  0  0  0  0
   -3.5877    0.8519   -1.5050 H   0  0  0  0  0  0  0  0  0  0  0  0
    0.7943   -0.6138    1.7674 H   0  0  0  0  0  0  0  0  0  0  0  0
    1.9106   -1.5621    0.8312 H   0  0  0  0  0  0  0  0  0  0  0  0
    1.4310    2.5180   -0.0334 H   0  0  0  0  0  0  0  0  0  0  0  0
    1.2257    1.3619   -1.3550 H   0  0  0  0  0  0  0  0  0  0  0  0
   -5.3275    2.5878   -1.3413 H   0  0  0  0  0  0  0  0  0  0  0  0
   -4.7821    2.7525    2.9253 H   0  0  0  0  0  0  0  0  0  0  0  0
    3.0471   -0.1874   -1.1969 H   0  0  0  0  0  0  0  0  0  0  0  0
    3.7929   -0.4749    0.3580 H   0  0  0  0  0  0  0  0  0  0  0  0
    6.5584   -0.4891   -2.2216 H   0  0  0  0  0  0  0  0  0  0  0  0
   -2.4430   -1.4723   -1.9929 H   0  0  0  0  0  0  0  0  0  0  0  0
   -3.4323   -2.1227    2.1597 H   0  0  0  0  0  0  0  0  0  0  0  0
    8.0030    1.0534   -1.4095 H   0  0  0  0  0  0  0  0  0  0  0  0
    8.3804   -0.0867   -0.0893 H   0  0  0  0  0  0  0  0  0  0  0  0
    3.6752    2.2150   -1.0858 H   0  0  0  0  0  0  0  0  0  0  0  0
    4.3113    2.0247    0.5505 H   0  0  0  0  0  0  0  0  0  0  0  0
    5.9557   -0.1417    0.5430 H   0  0  0  0  0  0  0  0  0  0  0  0
    6.6067    1.5260    0.6438 H   0  0  0  0  0  0  0  0  0  0  0  0
   -4.5481   -4.2374    1.5492 H   0  0  0  0  0  0  0  0  0  0  0  0
   -3.5593   -3.5927   -2.5790 H   0  0  0  0  0  0  0  0  0  0  0  0
   -4.6193   -4.9794   -0.8153 H   0  0  0  0  0  0  0  0  0  0  0  0
   -0.1651   -0.4946    2.2355 H   0  0  0  0  0  0  0  0  0  0  0  0
   -0.0710    1.2212    2.2247 H   0  0  0  0  0  0  0  0  0  0  0  0
    4.3531    0.2931   -1.5475 H   0  0  0  0  0  0  0  0  0  0  0  0
   -4.9534    0.2883   -0.9175 H   0  0  0  0  0  0  0  0  0  0  0  0
    0.5424    2.7579   -1.2871 H   0  0  0  0  0  0  0  0  0  0  0  0
   -0.9162    2.7908    0.8624 H   0  0  0  0  0  0  0  0  0  0  0  0
    3.7040    2.8525   -3.6068 H   0  0  0  0  0  0  0  0  0  0  0  0
   -4.4310    4.4543   -0.2560 H   0  0  0  0  0  0  0  0  0  0  0  0
    1.4243   -1.5346    2.8017 H   0  0  0  0  0  0  0  0  0  0  0  0
   -0.1620   -2.1552    0.4919 H   0  0  0  0  0  0  0  0  0  0  0  0
    5.2985   -1.5074   -0.2674 H   0  0  0  0  0  0  0  0  0  0  0  0
   -4.6292   -2.0077   -1.6258 H   0  0  0  0  0  0  0  0  0  0  0  0
   -1.0410   -4.1229   -0.6413 H   0  0  0  0  0  0  0  0  0  0  0  0
    3.2595   -3.0768    3.1395 H   0  0  0  0  0  0  0  0  0  0  0  0
   -3.2718   -4.0622   -1.7196 H   0  0  0  0  0  0  0  0  0  0  0  0
    5.2166   -3.0784    1.6227 H   0  0  0  0  0  0  0  0  0  0  0  0
  2  1  1  0
  3 10  1  0
  4  2  1  0
  5  1  1  0
  6  1  1  0
  7  2  1  0
  8  4  2  0
  9  4  1  0
 10  5  1  0
 11  6  1  0
 12 14  2  0
 13  9  2  0
 14  8  1  0
 15 12  1  0
 16  3  1  0
 17 21  1  0
 18 22  1  0
 19  7  2  0
 20  7  1  0
 21 23  1  0
 22 16  1  0
 23 18  1  0
 24 20  2  0
 25 19  1  0
 26 25  2  0
 11  3  1  0
 13 12  1  0
 24 26  1  0
 28 32  2  0
 29 33  1  0
 30 31  1  0
 31 27  2  0
 32 29  1  0
 33 30  1  0
 34 27  1  0
 35 28  1  0
 36 27  1  0
 37 28  1  0
 38 29  2  0
 39 40  1  0
 40 34  2  0
 41 38  1  0
 42 36  2  0
 43 37  2  0
 44 31  1  0
 45 32  1  0
 46 36  1  0
 47 37  1  0
 48 39  1  0
 49 38  1  0
 50 40  1  0
 51 41  1  0
 52 49  2  0
 53 48  2  0
 54 52  1  0
 55 50  2  0
 30 39  2  0
 53 55  1  0
 35 41  2  0
 51 54  2  0
  2 56  1  1
  5 57  1  0
  5 58  1  0
  6 59  1  0
  6 60  1  0
  8 61  1  0
  9 62  1  0
 10 63  1  0
 10 64  1  0
 11 65  1  0
 11 66  1  0
 13 67  1  0
 14 68  1  0
 16 69  1  0
 16 70  1  0
 17 71  1  0
 19 72  1  0
 20 73  1  0
 21 74  1  0
 21 75  1  0
 22 76  1  0
 22 77  1  0
 23 78  1  0
 23 79  1  0
 24 80  1  0
 25 81  1  0
 26 82  1  0
 33 83  1  0
 33 84  1  0
 34 85  1  0
 35 86  1  0
 44 87  1  0
 45 88  1  0
 46 89  1  0
 47 90  1  0
 48 91  1  0
 49 92  1  0
 50 93  1  0
 51 94  1  0
 52 95  1  0
 53 96  1  0
 54 97  1  0
 55 98  1  0
M  END
$$$$
