
     RDKit          3D

 98103  0  0  0  0  0  0  0  0999 V2000
   -0.5264    0.1750    0.2311 N   0  0  0  0  0  0  0  0  0  0  0  0
   -1.9370    0.1801    0.6754 C   0  0  1  0  0  0  0  0  0  0  0  0
    2.1818    0.3749   -0.6182 N   0  0  0  0  0  0  0  0  0  0  0  0
   -2.8055    1.2303   -0.0408 C   0  0  0  0  0  0  0  0  0  0  0  0
   -0.2784   -0.0494   -1.1921 C   0  0  0  0  0  0  0  0  0  0  0  0
    0.2798    1.2933    0.7459 C   0  0  0  0  0  0  0  0  0  0  0  0
   -2.5760   -1.2238    0.7462 C   0  0  0  0  0  0  0  0  0  0  0  0
   -3.3465    0.9993   -1.3207 C   0  0  0  0  0  0  0  0  0  0  0  0
   -3.0796    2.4593    0.5858 C   0  0  0  0  0  0  0  0  0  0  0  0
    1.2208   -0.3446   -1.4778 C   0  0  0  0  0  0  0  0  0  0  0  0
    1.5757    1.5881   -0.0596 C   0  0  0  0  0  0  0  0  0  0  0  0
   -4.3706    3.1843   -1.3215 C   0  0  0  0  0  0  0  0  0  0  0  0
   -3.8508    3.4340   -0.0539 C   0  0  0  0  0  0  0  0  0  0  0  0
   -4.1279    1.9684   -1.9561 C   0  0  0  0  0  0  0  0  0  0  0  0
   -5.3180    4.3846   -2.1105 Cl  0  0  0  0  0  0  0  0  0  0  0  0
    3.4542    0.6620   -1.2997 C   0  0  0  0  0  0  0  0  0  0  0  0
    5.8800   -0.2280    2.4946 O   0  0  0  0  0  0  0  0  0  0  0  0
    4.5925   -1.4851   -0.6974 O   0  0  0  0  0  0  0  0  0  0  0  0
   -1.7955   -2.3946    0.7156 C   0  0  0  0  0  0  0  0  0  0  0  0
   -3.9636   -1.3726    0.9385 C   0  0  0  0  0  0  0  0  0  0  0  0
    4.9542   -0.8537    1.6102 C   0  0  0  0  0  0  0  0  0  0  0  0
    4.2437   -0.5856   -1.7569 C   0  0  0  0  0  0  0  0  0  0  0  0
    5.5556   -0.9553    0.2136 C   0  0  0  0  0  0  0  0  0  0  0  0
   -4.5510   -2.6379    1.0339 C   0  0  0  0  0  0  0  0  0  0  0  0
   -2.3826   -3.6596    0.8010 C   0  0  0  0  0  0  0  0  0  0  0  0
   -3.7616   -3.7805    0.9540 C   0  0  0  0  0  0  0  0  0  0  0  0
    3.1253   -1.4011    1.2538 C   0  0  0  0  0  0  0  0  0  0  0  0
   -3.1340    1.7854   -0.5699 C   0  0  0  0  0  0  0  0  0  0  0  0
   -1.2835    0.6825    0.6137 C   0  0  0  0  0  0  0  0  0  0  0  0
    1.2812    0.1877    0.9051 C   0  0  0  0  0  0  0  0  0  0  0  0
    1.9591   -0.7662    1.7042 C   0  0  0  0  0  0  0  0  0  0  0  0
   -1.9663    1.8516    0.2033 C   0  0  0  0  0  0  0  0  0  0  0  0
   -0.0033    0.8271    1.4463 C   0  0  0  0  0  0  0  0  0  0  0  0
    3.6366   -1.0706   -0.0043 C   0  0  0  0  0  0  0  0  0  0  0  0
   -3.6438    0.5344   -0.9271 C   0  0  0  0  0  0  0  0  0  0  0  0
    3.8840   -2.4152    2.0299 C   0  0  0  0  0  0  0  0  0  0  0  0
   -3.8904    2.9721   -1.0487 C   0  0  0  0  0  0  0  0  0  0  0  0
   -1.8539   -0.5917    0.2967 C   0  0  0  0  0  0  0  0  0  0  0  0
    1.8525    0.5626   -0.3529 C   0  0  0  0  0  0  0  0  0  0  0  0
    3.0279   -0.0969   -0.8024 C   0  0  0  0  0  0  0  0  0  0  0  0
   -3.0292   -0.6484   -0.4999 C   0  0  0  0  0  0  0  0  0  0  0  0
    4.8976   -2.9858    1.6692 O   0  0  0  0  0  0  0  0  0  0  0  0
   -4.9011    2.9588   -1.7257 O   0  0  0  0  0  0  0  0  0  0  0  0
    1.4263   -1.0472    2.9402 O   0  0  0  0  0  0  0  0  0  0  0  0
   -1.4348    3.0585    0.5885 O   0  0  0  0  0  0  0  0  0  0  0  0
    3.3459   -2.6731    3.2388 O   0  0  0  0  0  0  0  0  0  0  0  0
   -3.3530    4.1448   -0.6481 O   0  0  0  0  0  0  0  0  0  0  0  0
    1.3455    1.5823   -1.1925 C   0  0  0  0  0  0  0  0  0  0  0  0
   -1.3386   -1.8313    0.7403 C   0  0  0  0  0  0  0  0  0  0  0  0
    3.6069    0.2313   -2.0400 C   0  0  0  0  0  0  0  0  0  0  0  0
   -3.6018   -1.8847   -0.8493 C   0  0  0  0  0  0  0  0  0  0  0  0
   -1.9214   -3.0559    0.3961 C   0  0  0  0  0  0  0  0  0  0  0  0
    1.9328    1.9081   -2.4200 C   0  0  0  0  0  0  0  0  0  0  0  0
   -3.0509   -3.0831   -0.4052 C   0  0  0  0  0  0  0  0  0  0  0  0
    3.0591    1.2245   -2.8476 C   0  0  0  0  0  0  0  0  0  0  0  0
   -1.9168    0.4655    1.7383 H   0  0  0  0  0  0  0  0  0  0  0  0
   -0.5688    0.8353   -1.7727 H   0  0  0  0  0  0  0  0  0  0  0  0
   -0.8608   -0.8924   -1.5789 H   0  0  0  0  0  0  0  0  0  0  0  0
    0.5612    1.0471    1.7764 H   0  0  0  0  0  0  0  0  0  0  0  0
   -0.2929    2.2276    0.7789 H   0  0  0  0  0  0  0  0  0  0  0  0
   -3.1705    0.0516   -1.8277 H   0  0  0  0  0  0  0  0  0  0  0  0
   -2.6867    2.6687    1.5787 H   0  0  0  0  0  0  0  0  0  0  0  0
    1.3984   -1.4180   -1.3418 H   0  0  0  0  0  0  0  0  0  0  0  0
    1.3957   -0.1193   -2.5365 H   0  0  0  0  0  0  0  0  0  0  0  0
    1.3387    2.2920   -0.8681 H   0  0  0  0  0  0  0  0  0  0  0  0
    2.2827    2.0947    0.6077 H   0  0  0  0  0  0  0  0  0  0  0  0
   -4.0454    4.3802    0.4439 H   0  0  0  0  0  0  0  0  0  0  0  0
   -4.5366    1.7699   -2.9430 H   0  0  0  0  0  0  0  0  0  0  0  0
    4.0944    1.2331   -0.6146 H   0  0  0  0  0  0  0  0  0  0  0  0
    3.2751    1.3058   -2.1719 H   0  0  0  0  0  0  0  0  0  0  0  0
    5.4601   -0.2290    3.3734 H   0  0  0  0  0  0  0  0  0  0  0  0
   -0.7124   -2.3343    0.6255 H   0  0  0  0  0  0  0  0  0  0  0  0
   -4.6080   -0.5000    1.0178 H   0  0  0  0  0  0  0  0  0  0  0  0
    4.0259   -0.2716    1.5970 H   0  0  0  0  0  0  0  0  0  0  0  0
    4.7162   -1.8546    1.9942 H   0  0  0  0  0  0  0  0  0  0  0  0
    5.1580   -0.2733   -2.2776 H   0  0  0  0  0  0  0  0  0  0  0  0
    3.6588   -1.1604   -2.4859 H   0  0  0  0  0  0  0  0  0  0  0  0
    5.9631    0.0089   -0.1168 H   0  0  0  0  0  0  0  0  0  0  0  0
    6.4067   -1.6490    0.2353 H   0  0  0  0  0  0  0  0  0  0  0  0
   -5.6259   -2.7282    1.1678 H   0  0  0  0  0  0  0  0  0  0  0  0
   -1.7603   -4.5479    0.7609 H   0  0  0  0  0  0  0  0  0  0  0  0
   -4.2172   -4.7650    1.0270 H   0  0  0  0  0  0  0  0  0  0  0  0
   -0.2552    0.4464    2.4442 H   0  0  0  0  0  0  0  0  0  0  0  0
    0.2489    1.8791    1.6254 H   0  0  0  0  0  0  0  0  0  0  0  0
    4.5448   -1.5618   -0.3529 H   0  0  0  0  0  0  0  0  0  0  0  0
   -4.5523    0.4857   -1.5275 H   0  0  0  0  0  0  0  0  0  0  0  0
    2.0045   -1.7081    3.3785 H   0  0  0  0  0  0  0  0  0  0  0  0
   -2.0185    3.7746    0.2556 H   0  0  0  0  0  0  0  0  0  0  0  0
    3.9744   -3.3296    3.6216 H   0  0  0  0  0  0  0  0  0  0  0  0
   -3.9685    4.8117   -1.0327 H   0  0  0  0  0  0  0  0  0  0  0  0
    0.4844    2.1683   -0.8956 H   0  0  0  0  0  0  0  0  0  0  0  0
   -0.4716   -1.8730    1.3889 H   0  0  0  0  0  0  0  0  0  0  0  0
    4.5004   -0.2853   -2.3870 H   0  0  0  0  0  0  0  0  0  0  0  0
   -4.4957   -1.9237   -1.4694 H   0  0  0  0  0  0  0  0  0  0  0  0
   -1.4910   -3.9827    0.7651 H   0  0  0  0  0  0  0  0  0  0  0  0
    1.5100    2.7009   -3.0308 H   0  0  0  0  0  0  0  0  0  0  0  0
   -3.5092   -4.0308   -0.6748 H   0  0  0  0  0  0  0  0  0  0  0  0
    3.5198    1.4676   -3.8011 H   0  0  0  0  0  0  0  0  0  0  0  0
  2  1  1  0
  3 10  1  0
  4  2  1  0
  5  1  1  0
  6  1  1  0
  7  2  1  0
  8  4  2  0
  9  4  1  0
 10  5  1  0
 11  6  1  0
 12 14  2  0
 13  9  2  0
 14  8  1  0
 15 12  1  0
 16  3  1  0
 17 21  1  0
 18 22  1  0
 19  7  2  0
 20  7  1  0
 21 23  1  0
 22 16  1  0
 23 18  1  0
 24 20  2  0
 25 19  1  0
 26 25  2  0
 11  3  1  0
 13 12  1  0
 24 26  1  0
 28 32  2  0
 29 33  1  0
 30 31  1  0
 31 27  2  0
 32 29  1  0
 33 30  1  0
 34 27  1  0
 35 28  1  0
 36 27  1  0
 37 28  1  0
 38 29  2  0
 39 40  1  0
 40 34  2  0
 41 38  1  0
 42 36  2  0
 43 37  2  0
 44 31  1  0
 45 32  1  0
 46 36  1  0
 47 37  1  0
 48 39  1  0
 49 38  1  0
 50 40  1  0
 51 41  1  0
 52 49  2  0
 53 48  2  0
 54 52  1  0
 55 50  2  0
 30 39  2  0
 53 55  1  0
 35 41  2  0
 51 54  2  0
  2 56  1  1
  5 57  1  0
  5 58  1  0
  6 59  1  0
  6 60  1  0
  8 61  1  0
  9 62  1  0
 10 63  1  0
 10 64  1  0
 11 65  1  0
 11 66  1  0
 13 67  1  0
 14 68  1  0
 16 69  1  0
 16 70  1  0
 17 71  1  0
 19 72  1  0
 20 73  1  0
 21 74  1  0
 21 75  1  0
 22 76  1  0
 22 77  1  0
 23 78  1  0
 23 79  1  0
 24 80  1  0
 25 81  1  0
 26 82  1  0
 33 83  1  0
 33 84  1  0
 34 85  1  0
 35 86  1  0
 44 87  1  0
 45 88  1  0
 46 89  1  0
 47 90  1  0
 48 91  1  0
 49 92  1  0
 50 93  1  0
 51 94  1  0
 52 95  1  0
 53 96  1  0
 54 97  1  0
 55 98  1  0
M  END
$$$$
