
     RDKit          3D

 98103  0  0  0  0  0  0  0  0999 V2000
   -0.8662   -0.0272    0.0952 N   0  0  0  0  0  0  0  0  0  0  0  0
   -2.2432   -0.4328    0.4902 C   0  0  1  0  0  0  0  0  0  0  0  0
    1.9129    0.4488   -0.2092 N   0  0  0  0  0  0  0  0  0  0  0  0
   -3.2139    0.7484    0.6362 C   0  0  0  0  0  0  0  0  0  0  0  0
   -0.2612    0.9439    1.0251 C   0  0  0  0  0  0  0  0  0  0  0  0
    0.0394   -1.1994   -0.0330 C   0  0  0  0  0  0  0  0  0  0  0  0
   -2.8632   -1.4857   -0.4393 C   0  0  0  0  0  0  0  0  0  0  0  0
   -4.0731    0.8176    1.7464 C   0  0  0  0  0  0  0  0  0  0  0  0
   -3.2933    1.7615   -0.3366 C   0  0  0  0  0  0  0  0  0  0  0  0
    1.1255    1.4459    0.5327 C   0  0  0  0  0  0  0  0  0  0  0  0
    1.5524   -0.9115    0.1809 C   0  0  0  0  0  0  0  0  0  0  0  0
   -5.0307    2.8729    0.9126 C   0  0  0  0  0  0  0  0  0  0  0  0
   -4.1918    2.8217   -0.1966 C   0  0  0  0  0  0  0  0  0  0  0  0
   -4.9764    1.8752    1.8833 C   0  0  0  0  0  0  0  0  0  0  0  0
   -6.1426    4.1747    1.0845 Cl  0  0  0  0  0  0  0  0  0  0  0  0
    3.3499    0.7256   -0.2346 C   0  0  0  0  0  0  0  0  0  0  0  0
    7.6382    0.0321   -1.8873 O   0  0  0  0  0  0  0  0  0  0  0  0
    5.4932    0.9510    0.9603 O   0  0  0  0  0  0  0  0  0  0  0  0
   -3.5327   -2.5954    0.1043 C   0  0  0  0  0  0  0  0  0  0  0  0
   -2.8170   -1.3537   -1.8380 C   0  0  0  0  0  0  0  0  0  0  0  0
    6.8125    0.8603   -1.0737 C   0  0  0  0  0  0  0  0  0  0  0  0
    4.1435    0.4866    1.0645 C   0  0  0  0  0  0  0  0  0  0  0  0
    6.3393    0.1151    0.1730 C   0  0  0  0  0  0  0  0  0  0  0  0
   -3.4116   -2.3060   -2.6670 C   0  0  0  0  0  0  0  0  0  0  0  0
   -4.1234   -3.5494   -0.7274 C   0  0  0  0  0  0  0  0  0  0  0  0
   -4.0634   -3.4038   -2.1116 C   0  0  0  0  0  0  0  0  0  0  0  0
   -2.9139    1.1607   -0.5520 C   0  0  0  0  0  0  0  0  0  0  0  0
    2.5479   -1.6108   -0.8720 C   0  0  0  0  0  0  0  0  0  0  0  0
    1.3775    0.0823    0.4651 C   0  0  0  0  0  0  0  0  0  0  0  0
   -1.1682    0.2809    0.9323 C   0  0  0  0  0  0  0  0  0  0  0  0
   -1.6258    1.2347   -0.0063 C   0  0  0  0  0  0  0  0  0  0  0  0
    1.5618   -1.2584    0.0592 C   0  0  0  0  0  0  0  0  0  0  0  0
    0.2623    0.4019    1.4649 C   0  0  0  0  0  0  0  0  0  0  0  0
   -3.7735    0.1412   -0.1365 C   0  0  0  0  0  0  0  0  0  0  0  0
    3.3816   -0.6205   -1.3927 C   0  0  0  0  0  0  0  0  0  0  0  0
   -3.4539    2.1145   -1.5531 C   0  0  0  0  0  0  0  0  0  0  0  0
    2.7038   -3.0250   -1.2849 C   0  0  0  0  0  0  0  0  0  0  0  0
    2.2598    1.0901   -0.0503 C   0  0  0  0  0  0  0  0  0  0  0  0
   -2.0676   -0.7481    1.3716 C   0  0  0  0  0  0  0  0  0  0  0  0
   -3.3749   -0.7999    0.8185 C   0  0  0  0  0  0  0  0  0  0  0  0
    3.2577    0.7139   -0.9893 C   0  0  0  0  0  0  0  0  0  0  0  0
   -4.5813    2.1142   -2.0114 O   0  0  0  0  0  0  0  0  0  0  0  0
    2.0067   -3.9423   -0.8820 O   0  0  0  0  0  0  0  0  0  0  0  0
   -0.7685    2.2530   -0.3364 O   0  0  0  0  0  0  0  0  0  0  0  0
    0.7596   -2.2093    0.6407 O   0  0  0  0  0  0  0  0  0  0  0  0
   -2.5550    3.0392   -1.9496 O   0  0  0  0  0  0  0  0  0  0  0  0
    3.7021   -3.2321   -2.1603 O   0  0  0  0  0  0  0  0  0  0  0  0
   -1.7586   -1.7352    2.3402 C   0  0  0  0  0  0  0  0  0  0  0  0
    2.2238    2.4616    0.3082 C   0  0  0  0  0  0  0  0  0  0  0  0
   -4.2876   -1.7902    1.2206 C   0  0  0  0  0  0  0  0  0  0  0  0
    4.1385    1.6702   -1.5255 C   0  0  0  0  0  0  0  0  0  0  0  0
    3.1042    3.4045   -0.2340 C   0  0  0  0  0  0  0  0  0  0  0  0
   -2.6742   -2.7167    2.7316 C   0  0  0  0  0  0  0  0  0  0  0  0
    4.0622    3.0087   -1.1535 C   0  0  0  0  0  0  0  0  0  0  0  0
   -3.9399   -2.7456    2.1701 C   0  0  0  0  0  0  0  0  0  0  0  0
   -2.1482   -0.8921    1.4853 H   0  0  0  0  0  0  0  0  0  0  0  0
   -0.1452    0.4865    2.0178 H   0  0  0  0  0  0  0  0  0  0  0  0
   -0.8890    1.8309    1.1588 H   0  0  0  0  0  0  0  0  0  0  0  0
   -0.0809   -1.6056   -1.0440 H   0  0  0  0  0  0  0  0  0  0  0  0
   -0.2344   -1.9908    0.6772 H   0  0  0  0  0  0  0  0  0  0  0  0
   -4.0539    0.0406    2.5073 H   0  0  0  0  0  0  0  0  0  0  0  0
   -2.6404    1.7308   -1.2066 H   0  0  0  0  0  0  0  0  0  0  0  0
    0.9681    2.3018   -0.1344 H   0  0  0  0  0  0  0  0  0  0  0  0
    1.6646    1.8206    1.4100 H   0  0  0  0  0  0  0  0  0  0  0  0
    1.7935   -1.0748    1.2392 H   0  0  0  0  0  0  0  0  0  0  0  0
    2.1271   -1.6437   -0.3995 H   0  0  0  0  0  0  0  0  0  0  0  0
   -4.2364    3.5940   -0.9599 H   0  0  0  0  0  0  0  0  0  0  0  0
   -5.6349    1.9139    2.7464 H   0  0  0  0  0  0  0  0  0  0  0  0
    3.7947    0.1142   -1.0298 H   0  0  0  0  0  0  0  0  0  0  0  0
    3.5153    1.7592   -0.5681 H   0  0  0  0  0  0  0  0  0  0  0  0
    7.0896   -0.7012   -2.2183 H   0  0  0  0  0  0  0  0  0  0  0  0
   -3.6022   -2.7238    1.1819 H   0  0  0  0  0  0  0  0  0  0  0  0
   -2.3095   -0.5024   -2.2864 H   0  0  0  0  0  0  0  0  0  0  0  0
    7.3894    1.7473   -0.7868 H   0  0  0  0  0  0  0  0  0  0  0  0
    5.9652    1.2093   -1.6739 H   0  0  0  0  0  0  0  0  0  0  0  0
    4.1398   -0.5694    1.3597 H   0  0  0  0  0  0  0  0  0  0  0  0
    3.6926    1.0520    1.8854 H   0  0  0  0  0  0  0  0  0  0  0  0
    5.8571   -0.8327   -0.0968 H   0  0  0  0  0  0  0  0  0  0  0  0
    7.2098   -0.1472    0.7856 H   0  0  0  0  0  0  0  0  0  0  0  0
   -3.3641   -2.1897   -3.7465 H   0  0  0  0  0  0  0  0  0  0  0  0
   -4.6406   -4.4016   -0.2944 H   0  0  0  0  0  0  0  0  0  0  0  0
   -4.5301   -4.1428   -2.7573 H   0  0  0  0  0  0  0  0  0  0  0  0
    0.4292   -0.2268    2.3444 H   0  0  0  0  0  0  0  0  0  0  0  0
    0.3645    1.4056    1.8892 H   0  0  0  0  0  0  0  0  0  0  0  0
   -4.7748    0.0852   -0.5626 H   0  0  0  0  0  0  0  0  0  0  0  0
    4.1485   -0.8920   -2.1149 H   0  0  0  0  0  0  0  0  0  0  0  0
   -1.1741    2.7762   -1.0597 H   0  0  0  0  0  0  0  0  0  0  0  0
    0.9276   -3.0854    0.2322 H   0  0  0  0  0  0  0  0  0  0  0  0
   -3.0635    3.5680   -2.6053 H   0  0  0  0  0  0  0  0  0  0  0  0
    3.6827   -4.1966   -2.3327 H   0  0  0  0  0  0  0  0  0  0  0  0
   -0.7784   -1.7744    2.8065 H   0  0  0  0  0  0  0  0  0  0  0  0
    1.4855    2.8375    1.0113 H   0  0  0  0  0  0  0  0  0  0  0  0
   -5.2871   -1.8262    0.7909 H   0  0  0  0  0  0  0  0  0  0  0  0
    4.8989    1.3755   -2.2468 H   0  0  0  0  0  0  0  0  0  0  0  0
    3.0277    4.4488    0.0605 H   0  0  0  0  0  0  0  0  0  0  0  0
   -2.3863   -3.4590    3.4704 H   0  0  0  0  0  0  0  0  0  0  0  0
    4.7462    3.7350   -1.5830 H   0  0  0  0  0  0  0  0  0  0  0  0
   -4.6534   -3.5090    2.4661 H   0  0  0  0  0  0  0  0  0  0  0  0
  2  1  1  0
  3 10  1  0
  4  2  1  0
  5  1  1  0
  6  1  1  0
  7  2  1  0
  8  4  2  0
  9  4  1  0
 10  5  1  0
 11  6  1  0
 12 14  2  0
 13  9  2  0
 14  8  1  0
 15 12  1  0
 16  3  1  0
 17 21  1  0
 18 22  1  0
 19  7  2  0
 20  7  1  0
 21 23  1  0
 22 16  1  0
 23 18  1  0
 24 20  2  0
 25 19  1  0
 26 25  2  0
 11  3  1  0
 13 12  1  0
 24 26  1  0
 28 32  2  0
 29 33  1  0
 30 31  1  0
 31 27  2  0
 32 29  1  0
 33 30  1  0
 34 27  1  0
 35 28  1  0
 36 27  1  0
 37 28  1  0
 38 29  2  0
 39 40  1  0
 40 34  2  0
 41 38  1  0
 42 36  2  0
 43 37  2  0
 44 31  1  0
 45 32  1  0
 46 36  1  0
 47 37  1  0
 48 39  1  0
 49 38  1  0
 50 40  1  0
 51 41  1  0
 52 49  2  0
 53 48  2  0
 54 52  1  0
 55 50  2  0
 30 39  2  0
 53 55  1  0
 35 41  2  0
 51 54  2  0
  2 56  1  1
  5 57  1  0
  5 58  1  0
  6 59  1  0
  6 60  1  0
  8 61  1  0
  9 62  1  0
 10 63  1  0
 10 64  1  0
 11 65  1  0
 11 66  1  0
 13 67  1  0
 14 68  1  0
 16 69  1  0
 16 70  1  0
 17 71  1  0
 19 72  1  0
 20 73  1  0
 21 74  1  0
 21 75  1  0
 22 76  1  0
 22 77  1  0
 23 78  1  0
 23 79  1  0
 24 80  1  0
 25 81  1  0
 26 82  1  0
 33 83  1  0
 33 84  1  0
 34 85  1  0
 35 86  1  0
 44 87  1  0
 45 88  1  0
 46 89  1  0
 47 90  1  0
 48 91  1  0
 49 92  1  0
 50 93  1  0
 51 94  1  0
 52 95  1  0
 53 96  1  0
 54 97  1  0
 55 98  1  0
M  END
$$$$
