
     RDKit          3D

 98103  0  0  0  0  0  0  0  0999 V2000
   -0.7908   -0.4212   -1.1917 N   0  0  0  0  0  0  0  0  0  0  0  0
   -1.8150   -0.1877   -0.1262 C   0  0  1  0  0  0  0  0  0  0  0  0
    1.3067    0.2421    0.6210 N   0  0  0  0  0  0  0  0  0  0  0  0
   -2.6897    1.0519   -0.3811 C   0  0  0  0  0  0  0  0  0  0  0  0
    0.0153    0.7868   -1.4845 C   0  0  0  0  0  0  0  0  0  0  0  0
    0.1616   -1.4962   -0.7875 C   0  0  0  0  0  0  0  0  0  0  0  0
   -2.7325   -1.4027    0.1044 C   0  0  0  0  0  0  0  0  0  0  0  0
   -3.4006    1.2184   -1.5834 C   0  0  0  0  0  0  0  0  0  0  0  0
   -2.8037    2.0434    0.6095 C   0  0  0  0  0  0  0  0  0  0  0  0
    0.9116    1.2969   -0.3237 C   0  0  0  0  0  0  0  0  0  0  0  0
    1.4638   -1.0440   -0.0642 C   0  0  0  0  0  0  0  0  0  0  0  0
   -4.2928    3.3181   -0.7994 C   0  0  0  0  0  0  0  0  0  0  0  0
   -3.6002    3.1720    0.4002 C   0  0  0  0  0  0  0  0  0  0  0  0
   -4.1975    2.3465   -1.7921 C   0  0  0  0  0  0  0  0  0  0  0  0
   -5.2710    4.7106   -1.0565 Cl  0  0  0  0  0  0  0  0  0  0  0  0
    2.4418    0.6088    1.4824 C   0  0  0  0  0  0  0  0  0  0  0  0
    6.7259    1.4394    0.3221 O   0  0  0  0  0  0  0  0  0  0  0  0
    4.3653   -0.6148    0.6106 O   0  0  0  0  0  0  0  0  0  0  0  0
   -3.1716   -1.7049    1.4055 C   0  0  0  0  0  0  0  0  0  0  0  0
   -3.1806   -2.2101   -0.9558 C   0  0  0  0  0  0  0  0  0  0  0  0
    6.7555    0.0182    0.4620 C   0  0  0  0  0  0  0  0  0  0  0  0
    3.8437    0.6964    0.8442 C   0  0  0  0  0  0  0  0  0  0  0  0
    5.5405   -0.6316   -0.2049 C   0  0  0  0  0  0  0  0  0  0  0  0
   -4.0294   -3.2930   -0.7205 C   0  0  0  0  0  0  0  0  0  0  0  0
   -4.0208   -2.7885    1.6384 C   0  0  0  0  0  0  0  0  0  0  0  0
   -4.4483   -3.5822    0.5761 C   0  0  0  0  0  0  0  0  0  0  0  0
   -2.6957    1.2468   -0.5821 C   0  0  0  0  0  0  0  0  0  0  0  0
    3.4318    1.5425    0.2044 C   0  0  0  0  0  0  0  0  0  0  0  0
    1.4526    0.1858    0.7076 C   0  0  0  0  0  0  0  0  0  0  0  0
   -1.1494    0.0363    0.8908 C   0  0  0  0  0  0  0  0  0  0  0  0
   -1.4725    1.1614    0.0962 C   0  0  0  0  0  0  0  0  0  0  0  0
    2.3171    1.2642    1.0062 C   0  0  0  0  0  0  0  0  0  0  0  0
    0.2160   -0.0337    1.5822 C   0  0  0  0  0  0  0  0  0  0  0  0
   -3.6248    0.2129   -0.4439 C   0  0  0  0  0  0  0  0  0  0  0  0
    3.7061    0.7193   -0.8919 C   0  0  0  0  0  0  0  0  0  0  0  0
   -3.0947    2.3820   -1.4538 C   0  0  0  0  0  0  0  0  0  0  0  0
    4.3692    2.6713    0.4346 C   0  0  0  0  0  0  0  0  0  0  0  0
    1.7668   -0.6782   -0.3894 C   0  0  0  0  0  0  0  0  0  0  0  0
   -2.1337   -0.9933    1.0719 C   0  0  0  0  0  0  0  0  0  0  0  0
   -3.3673   -0.8904    0.3766 C   0  0  0  0  0  0  0  0  0  0  0  0
    2.9004   -0.3855   -1.1906 C   0  0  0  0  0  0  0  0  0  0  0  0
   -4.1502    2.4931   -2.0497 O   0  0  0  0  0  0  0  0  0  0  0  0
    5.3558    2.9324   -0.2291 O   0  0  0  0  0  0  0  0  0  0  0  0
   -0.5524    2.1769    0.0316 O   0  0  0  0  0  0  0  0  0  0  0  0
    2.0274    2.0169    2.1186 O   0  0  0  0  0  0  0  0  0  0  0  0
   -2.1501    3.3408   -1.5492 O   0  0  0  0  0  0  0  0  0  0  0  0
    4.0319    3.4398    1.4909 O   0  0  0  0  0  0  0  0  0  0  0  0
   -1.9759   -2.1299    1.9068 C   0  0  0  0  0  0  0  0  0  0  0  0
    1.0242   -1.8319   -0.7371 C   0  0  0  0  0  0  0  0  0  0  0  0
   -4.3492   -1.8875    0.5052 C   0  0  0  0  0  0  0  0  0  0  0  0
    3.2301   -1.2018   -2.2859 C   0  0  0  0  0  0  0  0  0  0  0  0
    1.3633   -2.6380   -1.8274 C   0  0  0  0  0  0  0  0  0  0  0  0
   -2.9628   -3.1134    2.0293 C   0  0  0  0  0  0  0  0  0  0  0  0
    2.4654   -2.3201   -2.6052 C   0  0  0  0  0  0  0  0  0  0  0  0
   -4.1489   -2.9944    1.3241 C   0  0  0  0  0  0  0  0  0  0  0  0
   -1.2844   -0.0205    0.8203 H   0  0  0  0  0  0  0  0  0  0  0  0
   -0.6017    1.6096   -1.8612 H   0  0  0  0  0  0  0  0  0  0  0  0
    0.6698    0.5353   -2.3318 H   0  0  0  0  0  0  0  0  0  0  0  0
    0.4606   -2.0198   -1.7051 H   0  0  0  0  0  0  0  0  0  0  0  0
   -0.3291   -2.2608   -0.1748 H   0  0  0  0  0  0  0  0  0  0  0  0
   -3.3271    0.4668   -2.3665 H   0  0  0  0  0  0  0  0  0  0  0  0
   -2.2698    1.9406    1.5522 H   0  0  0  0  0  0  0  0  0  0  0  0
    1.7820    1.7882   -0.7724 H   0  0  0  0  0  0  0  0  0  0  0  0
    0.3640    2.0629    0.2376 H   0  0  0  0  0  0  0  0  0  0  0  0
    1.7455   -1.8260    0.6510 H   0  0  0  0  0  0  0  0  0  0  0  0
    2.2625   -0.9781   -0.8137 H   0  0  0  0  0  0  0  0  0  0  0  0
   -3.6773    3.9287    1.1761 H   0  0  0  0  0  0  0  0  0  0  0  0
   -4.7382    2.4574   -2.7277 H   0  0  0  0  0  0  0  0  0  0  0  0
    2.4805   -0.1169    2.3049 H   0  0  0  0  0  0  0  0  0  0  0  0
    2.2126    1.5763    1.9466 H   0  0  0  0  0  0  0  0  0  0  0  0
    6.8334    1.6421   -0.6232 H   0  0  0  0  0  0  0  0  0  0  0  0
   -2.8526   -1.0935    2.2466 H   0  0  0  0  0  0  0  0  0  0  0  0
   -2.8598   -1.9985   -1.9735 H   0  0  0  0  0  0  0  0  0  0  0  0
    7.6813   -0.3361   -0.0018 H   0  0  0  0  0  0  0  0  0  0  0  0
    6.7839   -0.2115    1.5312 H   0  0  0  0  0  0  0  0  0  0  0  0
    4.5007    1.2077    1.5555 H   0  0  0  0  0  0  0  0  0  0  0  0
    3.8213    1.2729   -0.0860 H   0  0  0  0  0  0  0  0  0  0  0  0
    5.3148   -0.1660   -1.1709 H   0  0  0  0  0  0  0  0  0  0  0  0
    5.7635   -1.6884   -0.3844 H   0  0  0  0  0  0  0  0  0  0  0  0
   -4.3629   -3.9097   -1.5506 H   0  0  0  0  0  0  0  0  0  0  0  0
   -4.3504   -3.0112    2.6496 H   0  0  0  0  0  0  0  0  0  0  0  0
   -5.1104   -4.4243    0.7583 H   0  0  0  0  0  0  0  0  0  0  0  0
    0.3867   -0.9983    2.0665 H   0  0  0  0  0  0  0  0  0  0  0  0
    0.1692    0.6809    2.4125 H   0  0  0  0  0  0  0  0  0  0  0  0
   -4.5749    0.2805   -0.9740 H   0  0  0  0  0  0  0  0  0  0  0  0
    4.5731    0.9373   -1.5150 H   0  0  0  0  0  0  0  0  0  0  0  0
   -0.8868    2.8604   -0.5840 H   0  0  0  0  0  0  0  0  0  0  0  0
    2.6616    2.7623    2.1553 H   0  0  0  0  0  0  0  0  0  0  0  0
   -2.5660    3.9971   -2.1530 H   0  0  0  0  0  0  0  0  0  0  0  0
    4.7385    4.1248    1.4957 H   0  0  0  0  0  0  0  0  0  0  0  0
   -1.0758   -2.2785    2.4957 H   0  0  0  0  0  0  0  0  0  0  0  0
    0.1608   -2.1350   -0.1541 H   0  0  0  0  0  0  0  0  0  0  0  0
   -5.2919   -1.8062   -0.0335 H   0  0  0  0  0  0  0  0  0  0  0  0
    4.0970   -0.9730   -2.9032 H   0  0  0  0  0  0  0  0  0  0  0  0
    0.7618   -3.5126   -2.0611 H   0  0  0  0  0  0  0  0  0  0  0  0
   -2.7982   -3.9684    2.6805 H   0  0  0  0  0  0  0  0  0  0  0  0
    2.7346   -2.9415   -3.4547 H   0  0  0  0  0  0  0  0  0  0  0  0
   -4.9204   -3.7542    1.4147 H   0  0  0  0  0  0  0  0  0  0  0  0
  2  1  1  0
  3 10  1  0
  4  2  1  0
  5  1  1  0
  6  1  1  0
  7  2  1  0
  8  4  2  0
  9  4  1  0
 10  5  1  0
 11  6  1  0
 12 14  2  0
 13  9  2  0
 14  8  1  0
 15 12  1  0
 16  3  1  0
 17 21  1  0
 18 22  1  0
 19  7  2  0
 20  7  1  0
 21 23  1  0
 22 16  1  0
 23 18  1  0
 24 20  2  0
 25 19  1  0
 26 25  2  0
 11  3  1  0
 13 12  1  0
 24 26  1  0
 28 32  2  0
 29 33  1  0
 30 31  1  0
 31 27  2  0
 32 29  1  0
 33 30  1  0
 34 27  1  0
 35 28  1  0
 36 27  1  0
 37 28  1  0
 38 29  2  0
 39 40  1  0
 40 34  2  0
 41 38  1  0
 42 36  2  0
 43 37  2  0
 44 31  1  0
 45 32  1  0
 46 36  1  0
 47 37  1  0
 48 39  1  0
 49 38  1  0
 50 40  1  0
 51 41  1  0
 52 49  2  0
 53 48  2  0
 54 52  1  0
 55 50  2  0
 30 39  2  0
 53 55  1  0
 35 41  2  0
 51 54  2  0
  2 56  1  1
  5 57  1  0
  5 58  1  0
  6 59  1  0
  6 60  1  0
  8 61  1  0
  9 62  1  0
 10 63  1  0
 10 64  1  0
 11 65  1  0
 11 66  1  0
 13 67  1  0
 14 68  1  0
 16 69  1  0
 16 70  1  0
 17 71  1  0
 19 72  1  0
 20 73  1  0
 21 74  1  0
 21 75  1  0
 22 76  1  0
 22 77  1  0
 23 78  1  0
 23 79  1  0
 24 80  1  0
 25 81  1  0
 26 82  1  0
 33 83  1  0
 33 84  1  0
 34 85  1  0
 35 86  1  0
 44 87  1  0
 45 88  1  0
 46 89  1  0
 47 90  1  0
 48 91  1  0
 49 92  1  0
 50 93  1  0
 51 94  1  0
 52 95  1  0
 53 96  1  0
 54 97  1  0
 55 98  1  0
M  END
$$$$
