
     RDKit          3D

 59 60  0  0  0  0  0  0  0  0999 V2000
   -1.4616   -0.3694    0.6416 N   0  0  0  0  0  0  0  0  0  0  0  0
   -2.5061    0.2839    0.0484 C   0  0  0  0  0  0  0  0  0  0  0  0
   -0.3627    0.3601    1.2943 C   0  0  0  0  0  0  0  0  0  0  0  0
    0.9254    0.3417    0.4901 C   0  0  0  0  0  0  0  0  0  0  0  0
   -3.0507   -0.0815   -1.0591 N   0  0  0  0  0  0  0  0  0  0  0  0
   -1.0255   -1.6589    0.0867 C   0  0  0  0  0  0  0  0  0  0  0  0
    1.1063   -0.5326   -0.5992 C   0  0  0  0  0  0  0  0  0  0  0  0
   -0.0189   -1.4364   -1.0416 C   0  0  0  0  0  0  0  0  0  0  0  0
   -2.9939    1.3285    0.7545 N   0  0  0  0  0  0  0  0  0  0  0  0
    1.9817    1.1853    0.8697 C   0  0  0  0  0  0  0  0  0  0  0  0
    2.3151   -0.5250   -1.3068 C   0  0  0  0  0  0  0  0  0  0  0  0
    3.1868    1.1771    0.1665 C   0  0  0  0  0  0  0  0  0  0  0  0
    3.3520    0.3245   -0.9223 C   0  0  0  0  0  0  0  0  0  0  0  0
   -0.0720    0.3946    0.2072 S   0  0  0  0  0  0  0  0  0  0  0  0
    0.4931    0.5863    1.5186 O   0  0  0  0  0  0  0  0  0  0  0  0
   -0.8645    1.3836   -0.4780 O   0  0  0  0  0  0  0  0  0  0  0  0
   -0.9443   -0.9520    0.2246 O   0  0  0  0  0  0  0  0  0  0  0  0
    1.1407   -0.0346   -0.7515 O   0  0  0  0  0  0  0  0  0  0  0  0
    1.4812    0.0402   -0.3403 N   0  0  0  0  0  0  0  0  0  0  0  0
    2.8419    0.1540   -0.2883 C   0  0  0  0  0  0  0  0  0  0  0  0
    0.6841    0.7271    0.6966 C   0  0  0  0  0  0  0  0  0  0  0  0
   -0.7823    0.3442    0.6914 C   0  0  0  0  0  0  0  0  0  0  0  0
    3.6553    0.4169   -1.2483 N   0  0  0  0  0  0  0  0  0  0  0  0
    0.7851   -0.0686   -1.6269 C   0  0  0  0  0  0  0  0  0  0  0  0
   -1.3496   -0.4097   -0.3498 C   0  0  0  0  0  0  0  0  0  0  0  0
   -0.4804   -0.9111   -1.4705 C   0  0  0  0  0  0  0  0  0  0  0  0
    3.3807   -0.0829    0.9260 N   0  0  0  0  0  0  0  0  0  0  0  0
   -1.6056    0.7817    1.7418 C   0  0  0  0  0  0  0  0  0  0  0  0
   -2.7106   -0.7439   -0.3104 C   0  0  0  0  0  0  0  0  0  0  0  0
   -2.9620    0.4556    1.7678 C   0  0  0  0  0  0  0  0  0  0  0  0
   -3.5131   -0.3092    0.7434 C   0  0  0  0  0  0  0  0  0  0  0  0
   -0.6335    1.4052    1.4903 H   0  0  0  0  0  0  0  0  0  0  0  0
   -0.1668   -0.1102    2.2663 H   0  0  0  0  0  0  0  0  0  0  0  0
   -3.8004    0.5655   -1.3024 H   0  0  0  0  0  0  0  0  0  0  0  0
   -1.8777   -2.2486   -0.2704 H   0  0  0  0  0  0  0  0  0  0  0  0
   -0.5649   -2.2510    0.8884 H   0  0  0  0  0  0  0  0  0  0  0  0
   -0.5094   -0.9777   -1.9083 H   0  0  0  0  0  0  0  0  0  0  0  0
    0.3814   -2.4073   -1.3553 H   0  0  0  0  0  0  0  0  0  0  0  0
   -2.9618    1.1545    1.7528 H   0  0  0  0  0  0  0  0  0  0  0  0
   -3.9185    1.6288    0.4754 H   0  0  0  0  0  0  0  0  0  0  0  0
    1.8687    1.8603    1.7154 H   0  0  0  0  0  0  0  0  0  0  0  0
    2.4517   -1.1805   -2.1638 H   0  0  0  0  0  0  0  0  0  0  0  0
    3.9955    1.8397    0.4647 H   0  0  0  0  0  0  0  0  0  0  0  0
    4.2877    0.3239   -1.4758 H   0  0  0  0  0  0  0  0  0  0  0  0
   -1.5652   -0.9040   -0.5322 H   0  0  0  0  0  0  0  0  0  0  0  0
    1.8122   -0.4738   -0.1887 H   0  0  0  0  0  0  0  0  0  0  0  0
    1.0789    0.4985    1.6933 H   0  0  0  0  0  0  0  0  0  0  0  0
    0.7586    1.8104    0.5376 H   0  0  0  0  0  0  0  0  0  0  0  0
    3.1359    0.5963   -2.1057 H   0  0  0  0  0  0  0  0  0  0  0  0
    0.5457    0.9331   -2.0055 H   0  0  0  0  0  0  0  0  0  0  0  0
    1.4165   -0.5619   -2.3754 H   0  0  0  0  0  0  0  0  0  0  0  0
   -1.0360   -0.8974   -2.4153 H   0  0  0  0  0  0  0  0  0  0  0  0
   -0.2080   -1.9514   -1.2532 H   0  0  0  0  0  0  0  0  0  0  0  0
    4.3883   -0.1650    0.8301 H   0  0  0  0  0  0  0  0  0  0  0  0
    2.9911   -0.9124    1.3544 H   0  0  0  0  0  0  0  0  0  0  0  0
   -1.1894    1.3777    2.5517 H   0  0  0  0  0  0  0  0  0  0  0  0
   -3.1510   -1.3477   -1.1010 H   0  0  0  0  0  0  0  0  0  0  0  0
   -3.5873    0.7948    2.5893 H   0  0  0  0  0  0  0  0  0  0  0  0
   -4.5680   -0.5694    0.7671 H   0  0  0  0  0  0  0  0  0  0  0  0
  2  1  1  0
  3  1  1  0
  4  3  1  0
  5  2  2  3
  6  1  1  0
  7  8  1  0
  8  6  1  0
  9  2  1  0
 10  4  2  0
 11  7  2  0
 12 10  1  0
 13 11  1  0
  4  7  1  0
 12 13  2  0
 15 14  2  0
 16 14  2  0
 17 14  1  0
 18 14  1  0
 20 19  1  0
 21 19  1  0
 22 21  1  0
 23 20  2  3
 24 19  1  0
 25 26  1  0
 26 24  1  0
 27 20  1  0
 28 22  2  0
 29 25  2  0
 30 28  1  0
 31 29  1  0
 22 25  1  0
 30 31  2  0
  3 32  1  0
  3 33  1  0
  5 34  1  0
  6 35  1  0
  6 36  1  0
  8 37  1  0
  8 38  1  0
  9 39  1  0
  9 40  1  0
 10 41  1  0
 11 42  1  0
 12 43  1  0
 13 44  1  0
 17 45  1  0
 18 46  1  0
 21 47  1  0
 21 48  1  0
 23 49  1  0
 24 50  1  0
 24 51  1  0
 26 52  1  0
 26 53  1  0
 27 54  1  0
 27 55  1  0
 28 56  1  0
 29 57  1  0
 30 58  1  0
 31 59  1  0
M  END
$$$$
