
     RDKit          3D

 59 60  0  0  0  0  0  0  0  0999 V2000
    1.5024    0.0632    0.2003 N   0  0  0  0  0  0  0  0  0  0  0  0
    2.7904    0.5041    0.1715 C   0  0  0  0  0  0  0  0  0  0  0  0
    0.4430    0.8181    0.8820 C   0  0  0  0  0  0  0  0  0  0  0  0
   -0.9565    0.4559    0.4197 C   0  0  0  0  0  0  0  0  0  0  0  0
    3.6990    0.1484   -0.6674 N   0  0  0  0  0  0  0  0  0  0  0  0
    1.1660   -1.3329   -0.0852 C   0  0  0  0  0  0  0  0  0  0  0  0
   -1.1959   -0.6081   -0.4682 C   0  0  0  0  0  0  0  0  0  0  0  0
   -0.0376   -1.3961   -1.0220 C   0  0  0  0  0  0  0  0  0  0  0  0
    3.1452    1.3977    1.1176 N   0  0  0  0  0  0  0  0  0  0  0  0
   -2.0476    1.1924    0.9091 C   0  0  0  0  0  0  0  0  0  0  0  0
   -2.5059   -0.9001   -0.8734 C   0  0  0  0  0  0  0  0  0  0  0  0
   -3.3496    0.8849    0.5132 C   0  0  0  0  0  0  0  0  0  0  0  0
   -3.5781   -0.1591   -0.3787 C   0  0  0  0  0  0  0  0  0  0  0  0
   -0.0554    0.3041    0.2903 S   0  0  0  0  0  0  0  0  0  0  0  0
    0.7906    0.2251    1.4563 O   0  0  0  0  0  0  0  0  0  0  0  0
   -1.2235    1.1450    0.2141 O   0  0  0  0  0  0  0  0  0  0  0  0
    0.8947    0.6157   -0.9642 O   0  0  0  0  0  0  0  0  0  0  0  0
   -0.5561   -1.1809   -0.0504 O   0  0  0  0  0  0  0  0  0  0  0  0
   -1.4833    0.2552   -0.0634 N   0  0  0  0  0  0  0  0  0  0  0  0
   -2.8055    0.3918   -0.3882 C   0  0  0  0  0  0  0  0  0  0  0  0
   -0.6795   -0.8046   -0.6913 C   0  0  0  0  0  0  0  0  0  0  0  0
    0.8096   -0.6953   -0.4293 C   0  0  0  0  0  0  0  0  0  0  0  0
   -3.5059   -0.3241   -1.1952 N   0  0  0  0  0  0  0  0  0  0  0  0
   -0.9920    0.6402    1.2720 C   0  0  0  0  0  0  0  0  0  0  0  0
    1.3407    0.2506    0.4649 C   0  0  0  0  0  0  0  0  0  0  0  0
    0.4197    1.2143    1.1620 C   0  0  0  0  0  0  0  0  0  0  0  0
   -3.4482    1.4293    0.1850 N   0  0  0  0  0  0  0  0  0  0  0  0
    1.6825   -1.5796   -1.0818 C   0  0  0  0  0  0  0  0  0  0  0  0
    2.7260    0.3227    0.6663 C   0  0  0  0  0  0  0  0  0  0  0  0
    3.0591   -1.5117   -0.8647 C   0  0  0  0  0  0  0  0  0  0  0  0
    3.5806   -0.5599    0.0059 C   0  0  0  0  0  0  0  0  0  0  0  0
    0.5839    1.8910    0.6998 H   0  0  0  0  0  0  0  0  0  0  0  0
    0.5094    0.6339    1.9615 H   0  0  0  0  0  0  0  0  0  0  0  0
    3.2768   -0.4707   -1.3598 H   0  0  0  0  0  0  0  0  0  0  0  0
    2.0009   -1.8754   -0.5423 H   0  0  0  0  0  0  0  0  0  0  0  0
    0.9454   -1.8484    0.8591 H   0  0  0  0  0  0  0  0  0  0  0  0
    0.2277   -0.9817   -2.0024 H   0  0  0  0  0  0  0  0  0  0  0  0
   -0.3264   -2.4443   -1.1610 H   0  0  0  0  0  0  0  0  0  0  0  0
    4.1441    1.5647    1.0385 H   0  0  0  0  0  0  0  0  0  0  0  0
    2.9246    1.0812    2.0511 H   0  0  0  0  0  0  0  0  0  0  0  0
   -1.8865    2.0172    1.6000 H   0  0  0  0  0  0  0  0  0  0  0  0
   -2.6973   -1.7067   -1.5772 H   0  0  0  0  0  0  0  0  0  0  0  0
   -4.1859    1.4645    0.8960 H   0  0  0  0  0  0  0  0  0  0  0  0
   -4.5917   -0.3937   -0.6927 H   0  0  0  0  0  0  0  0  0  0  0  0
    1.6858    0.0476   -0.8906 H   0  0  0  0  0  0  0  0  0  0  0  0
   -1.5362   -1.1566   -0.0556 H   0  0  0  0  0  0  0  0  0  0  0  0
   -0.8227   -0.7635   -1.7785 H   0  0  0  0  0  0  0  0  0  0  0  0
   -1.0266   -1.7803   -0.3276 H   0  0  0  0  0  0  0  0  0  0  0  0
   -2.9450   -1.0729   -1.5948 H   0  0  0  0  0  0  0  0  0  0  0  0
   -1.0045   -0.2400    1.9282 H   0  0  0  0  0  0  0  0  0  0  0  0
   -1.6221    1.3957    1.7525 H   0  0  0  0  0  0  0  0  0  0  0  0
    0.4014    2.1514    0.5921 H   0  0  0  0  0  0  0  0  0  0  0  0
    0.7941    1.4339    2.1690 H   0  0  0  0  0  0  0  0  0  0  0  0
   -2.9326    2.2939    0.0993 H   0  0  0  0  0  0  0  0  0  0  0  0
   -4.3638    1.5189   -0.2457 H   0  0  0  0  0  0  0  0  0  0  0  0
    1.2928   -2.3303   -1.7669 H   0  0  0  0  0  0  0  0  0  0  0  0
    3.1466    1.0666    1.3389 H   0  0  0  0  0  0  0  0  0  0  0  0
    3.7246   -2.1992   -1.3786 H   0  0  0  0  0  0  0  0  0  0  0  0
    4.6538   -0.5029    0.1700 H   0  0  0  0  0  0  0  0  0  0  0  0
  2  1  1  0
  3  1  1  0
  4  3  1  0
  5  2  2  3
  6  1  1  0
  7  8  1  0
  8  6  1  0
  9  2  1  0
 10  4  2  0
 11  7  2  0
 12 10  1  0
 13 11  1  0
  4  7  1  0
 12 13  2  0
 15 14  2  0
 16 14  2  0
 17 14  1  0
 18 14  1  0
 20 19  1  0
 21 19  1  0
 22 21  1  0
 23 20  2  3
 24 19  1  0
 25 26  1  0
 26 24  1  0
 27 20  1  0
 28 22  2  0
 29 25  2  0
 30 28  1  0
 31 29  1  0
 22 25  1  0
 30 31  2  0
  3 32  1  0
  3 33  1  0
  5 34  1  0
  6 35  1  0
  6 36  1  0
  8 37  1  0
  8 38  1  0
  9 39  1  0
  9 40  1  0
 10 41  1  0
 11 42  1  0
 12 43  1  0
 13 44  1  0
 17 45  1  0
 18 46  1  0
 21 47  1  0
 21 48  1  0
 23 49  1  0
 24 50  1  0
 24 51  1  0
 26 52  1  0
 26 53  1  0
 27 54  1  0
 27 55  1  0
 28 56  1  0
 29 57  1  0
 30 58  1  0
 31 59  1  0
M  END
$$$$
