
     RDKit          3D

 59 60  0  0  0  0  0  0  0  0999 V2000
   -1.4117   -0.1689   -0.4891 N   0  0  0  0  0  0  0  0  0  0  0  0
   -2.7338   -0.4711   -0.6419 C   0  0  0  0  0  0  0  0  0  0  0  0
   -0.4584   -1.1939   -0.0459 C   0  0  0  0  0  0  0  0  0  0  0  0
    0.8704   -0.6216    0.4113 C   0  0  0  0  0  0  0  0  0  0  0  0
   -3.2850   -1.6318   -0.6561 N   0  0  0  0  0  0  0  0  0  0  0  0
   -0.7887    0.8820   -1.3094 C   0  0  0  0  0  0  0  0  0  0  0  0
    1.2119    0.7255    0.1923 C   0  0  0  0  0  0  0  0  0  0  0  0
    0.2247    1.6552   -0.4661 C   0  0  0  0  0  0  0  0  0  0  0  0
   -3.5511    0.5957   -0.7529 N   0  0  0  0  0  0  0  0  0  0  0  0
    1.7926   -1.4629    1.0524 C   0  0  0  0  0  0  0  0  0  0  0  0
    2.4458    1.2155    0.6413 C   0  0  0  0  0  0  0  0  0  0  0  0
    3.0219   -0.9687    1.4882 C   0  0  0  0  0  0  0  0  0  0  0  0
    3.3474    0.3688    1.2835 C   0  0  0  0  0  0  0  0  0  0  0  0
   -0.3122    0.0008    0.2684 S   0  0  0  0  0  0  0  0  0  0  0  0
   -1.7360    0.1792    0.1466 O   0  0  0  0  0  0  0  0  0  0  0  0
    0.4129    0.3451    1.4670 O   0  0  0  0  0  0  0  0  0  0  0  0
    0.3739    0.8221   -0.9280 O   0  0  0  0  0  0  0  0  0  0  0  0
    0.0730   -1.5114   -0.1062 O   0  0  0  0  0  0  0  0  0  0  0  0
    1.5615   -0.3201   -0.4681 N   0  0  0  0  0  0  0  0  0  0  0  0
    2.4412   -0.0088    0.5270 C   0  0  0  0  0  0  0  0  0  0  0  0
    0.5335   -1.3488   -0.2777 C   0  0  0  0  0  0  0  0  0  0  0  0
   -0.8142   -0.7583    0.0837 C   0  0  0  0  0  0  0  0  0  0  0  0
    2.2906   -0.1690    1.7911 N   0  0  0  0  0  0  0  0  0  0  0  0
    1.1033    0.7555   -1.3641 C   0  0  0  0  0  0  0  0  0  0  0  0
   -1.1058    0.6002   -0.1547 C   0  0  0  0  0  0  0  0  0  0  0  0
   -0.0417    1.5258   -0.6980 C   0  0  0  0  0  0  0  0  0  0  0  0
    3.6098    0.4904    0.0789 N   0  0  0  0  0  0  0  0  0  0  0  0
   -1.8113   -1.5916    0.6118 C   0  0  0  0  0  0  0  0  0  0  0  0
   -2.3711    1.1064    0.1718 C   0  0  0  0  0  0  0  0  0  0  0  0
   -3.0714   -1.0797    0.9212 C   0  0  0  0  0  0  0  0  0  0  0  0
   -3.3498    0.2680    0.7035 C   0  0  0  0  0  0  0  0  0  0  0  0
   -0.2722   -1.8986   -0.8662 H   0  0  0  0  0  0  0  0  0  0  0  0
   -0.8941   -1.7443    0.7969 H   0  0  0  0  0  0  0  0  0  0  0  0
   -2.5754   -2.3575   -0.5850 H   0  0  0  0  0  0  0  0  0  0  0  0
   -0.2978    0.4160   -2.1738 H   0  0  0  0  0  0  0  0  0  0  0  0
   -1.5221    1.5935   -1.7068 H   0  0  0  0  0  0  0  0  0  0  0  0
    0.7495    2.3717   -1.1071 H   0  0  0  0  0  0  0  0  0  0  0  0
   -0.2960    2.2160    0.3198 H   0  0  0  0  0  0  0  0  0  0  0  0
   -4.5147    0.2873   -0.6753 H   0  0  0  0  0  0  0  0  0  0  0  0
   -3.3422    1.3066   -0.0654 H   0  0  0  0  0  0  0  0  0  0  0  0
    1.5504   -2.5088    1.2269 H   0  0  0  0  0  0  0  0  0  0  0  0
    2.7088    2.2615    0.4969 H   0  0  0  0  0  0  0  0  0  0  0  0
    3.7212   -1.6245    1.9973 H   0  0  0  0  0  0  0  0  0  0  0  0
    4.2988    0.7576    1.6343 H   0  0  0  0  0  0  0  0  0  0  0  0
    0.1455    1.7673   -0.8065 H   0  0  0  0  0  0  0  0  0  0  0  0
    1.0429   -1.6031   -0.0414 H   0  0  0  0  0  0  0  0  0  0  0  0
    0.8485   -2.0715    0.4849 H   0  0  0  0  0  0  0  0  0  0  0  0
    0.4209   -1.9069   -1.2157 H   0  0  0  0  0  0  0  0  0  0  0  0
    1.3468   -0.5152    1.9743 H   0  0  0  0  0  0  0  0  0  0  0  0
    0.7616    0.3132   -2.3088 H   0  0  0  0  0  0  0  0  0  0  0  0
    1.9163    1.4434   -1.6223 H   0  0  0  0  0  0  0  0  0  0  0  0
    0.3495    2.1213    0.1365 H   0  0  0  0  0  0  0  0  0  0  0  0
   -0.4808    2.2142   -1.4300 H   0  0  0  0  0  0  0  0  0  0  0  0
    3.9467   -0.0090   -0.7308 H   0  0  0  0  0  0  0  0  0  0  0  0
    4.2892    0.4920    0.8323 H   0  0  0  0  0  0  0  0  0  0  0  0
   -1.6116   -2.6467    0.7890 H   0  0  0  0  0  0  0  0  0  0  0  0
   -2.5980    2.1595    0.0186 H   0  0  0  0  0  0  0  0  0  0  0  0
   -3.8355   -1.7323    1.3367 H   0  0  0  0  0  0  0  0  0  0  0  0
   -4.3281    0.6682    0.9547 H   0  0  0  0  0  0  0  0  0  0  0  0
  2  1  1  0
  3  1  1  0
  4  3  1  0
  5  2  2  3
  6  1  1  0
  7  8  1  0
  8  6  1  0
  9  2  1  0
 10  4  2  0
 11  7  2  0
 12 10  1  0
 13 11  1  0
  4  7  1  0
 12 13  2  0
 15 14  2  0
 16 14  2  0
 17 14  1  0
 18 14  1  0
 20 19  1  0
 21 19  1  0
 22 21  1  0
 23 20  2  3
 24 19  1  0
 25 26  1  0
 26 24  1  0
 27 20  1  0
 28 22  2  0
 29 25  2  0
 30 28  1  0
 31 29  1  0
 22 25  1  0
 30 31  2  0
  3 32  1  0
  3 33  1  0
  5 34  1  0
  6 35  1  0
  6 36  1  0
  8 37  1  0
  8 38  1  0
  9 39  1  0
  9 40  1  0
 10 41  1  0
 11 42  1  0
 12 43  1  0
 13 44  1  0
 17 45  1  0
 18 46  1  0
 21 47  1  0
 21 48  1  0
 23 49  1  0
 24 50  1  0
 24 51  1  0
 26 52  1  0
 26 53  1  0
 27 54  1  0
 27 55  1  0
 28 56  1  0
 29 57  1  0
 30 58  1  0
 31 59  1  0
M  END
$$$$
