
     RDKit          3D

 59 60  0  0  0  0  0  0  0  0999 V2000
    1.5188    0.0396   -0.1651 N   0  0  0  0  0  0  0  0  0  0  0  0
    2.8333    0.4164   -0.1792 C   0  0  0  0  0  0  0  0  0  0  0  0
    0.5041    1.0875    0.0778 C   0  0  0  0  0  0  0  0  0  0  0  0
   -0.9158    0.5688    0.1915 C   0  0  0  0  0  0  0  0  0  0  0  0
    3.7457    0.0849   -1.0211 N   0  0  0  0  0  0  0  0  0  0  0  0
    1.0474   -1.0510   -1.0250 C   0  0  0  0  0  0  0  0  0  0  0  0
   -1.2388   -0.7762   -0.0496 C   0  0  0  0  0  0  0  0  0  0  0  0
   -0.1476   -1.7533   -0.3852 C   0  0  0  0  0  0  0  0  0  0  0  0
    3.2061    1.2113    0.8447 N   0  0  0  0  0  0  0  0  0  0  0  0
   -1.9434    1.4660    0.5243 C   0  0  0  0  0  0  0  0  0  0  0  0
   -2.5652   -1.2117    0.0739 C   0  0  0  0  0  0  0  0  0  0  0  0
   -3.2642    1.0294    0.6288 C   0  0  0  0  0  0  0  0  0  0  0  0
   -3.5740   -0.3092    0.4060 C   0  0  0  0  0  0  0  0  0  0  0  0
   -0.1516   -0.3425    0.1933 S   0  0  0  0  0  0  0  0  0  0  0  0
    0.2111   -0.1564    1.5762 O   0  0  0  0  0  0  0  0  0  0  0  0
   -1.2203   -1.2170   -0.2217 O   0  0  0  0  0  0  0  0  0  0  0  0
    1.1876   -0.7146   -0.6120 O   0  0  0  0  0  0  0  0  0  0  0  0
   -0.4843    1.1142   -0.3921 O   0  0  0  0  0  0  0  0  0  0  0  0
    1.4683    0.1195    0.0493 N   0  0  0  0  0  0  0  0  0  0  0  0
    2.7583    0.5756    0.0050 C   0  0  0  0  0  0  0  0  0  0  0  0
    0.3705    1.0913   -0.1218 C   0  0  0  0  0  0  0  0  0  0  0  0
   -1.0049    0.4534   -0.1667 C   0  0  0  0  0  0  0  0  0  0  0  0
    3.6693    0.2696    0.8612 N   0  0  0  0  0  0  0  0  0  0  0  0
    1.1525   -0.9215    1.0427 C   0  0  0  0  0  0  0  0  0  0  0  0
   -1.2099   -0.8908    0.1890 C   0  0  0  0  0  0  0  0  0  0  0  0
   -0.0352   -1.7550    0.5640 C   0  0  0  0  0  0  0  0  0  0  0  0
    3.0344    1.3616   -1.0585 N   0  0  0  0  0  0  0  0  0  0  0  0
   -2.1110    1.2372   -0.5344 C   0  0  0  0  0  0  0  0  0  0  0  0
   -2.4994   -1.4389    0.1400 C   0  0  0  0  0  0  0  0  0  0  0  0
   -3.3929    0.6873   -0.5694 C   0  0  0  0  0  0  0  0  0  0  0  0
   -3.5861   -0.6505   -0.2345 C   0  0  0  0  0  0  0  0  0  0  0  0
    0.7308    1.6170    1.0107 H   0  0  0  0  0  0  0  0  0  0  0  0
    0.5413    1.8088   -0.7475 H   0  0  0  0  0  0  0  0  0  0  0  0
    3.3465   -0.4930   -1.7586 H   0  0  0  0  0  0  0  0  0  0  0  0
    1.8324   -1.8041   -1.1644 H   0  0  0  0  0  0  0  0  0  0  0  0
    0.7884   -0.6556   -2.0157 H   0  0  0  0  0  0  0  0  0  0  0  0
    0.1616   -2.2543    0.5402 H   0  0  0  0  0  0  0  0  0  0  0  0
   -0.5210   -2.5186   -1.0758 H   0  0  0  0  0  0  0  0  0  0  0  0
    2.8850    0.8537    1.7351 H   0  0  0  0  0  0  0  0  0  0  0  0
    4.2184    1.3038    0.8355 H   0  0  0  0  0  0  0  0  0  0  0  0
   -1.7170    2.5145    0.7070 H   0  0  0  0  0  0  0  0  0  0  0  0
   -2.8189   -2.2563   -0.0911 H   0  0  0  0  0  0  0  0  0  0  0  0
   -4.0513    1.7329    0.8872 H   0  0  0  0  0  0  0  0  0  0  0  0
   -4.6026   -0.6510    0.4928 H   0  0  0  0  0  0  0  0  0  0  0  0
    1.8557   -0.0268   -0.4252 H   0  0  0  0  0  0  0  0  0  0  0  0
   -1.3982    1.3431   -0.1185 H   0  0  0  0  0  0  0  0  0  0  0  0
    0.5047    1.6462   -1.0579 H   0  0  0  0  0  0  0  0  0  0  0  0
    0.3932    1.8093    0.7077 H   0  0  0  0  0  0  0  0  0  0  0  0
    4.5364    0.7496    0.6245 H   0  0  0  0  0  0  0  0  0  0  0  0
    0.9392   -0.4555    2.0136 H   0  0  0  0  0  0  0  0  0  0  0  0
    2.0005   -1.6027    1.1848 H   0  0  0  0  0  0  0  0  0  0  0  0
   -0.3189   -2.4562    1.3569 H   0  0  0  0  0  0  0  0  0  0  0  0
    0.2536   -2.3410   -0.3173 H   0  0  0  0  0  0  0  0  0  0  0  0
    4.0187    1.4293   -1.2717 H   0  0  0  0  0  0  0  0  0  0  0  0
    2.5207    1.0597   -1.8787 H   0  0  0  0  0  0  0  0  0  0  0  0
   -1.9771    2.2849   -0.7970 H   0  0  0  0  0  0  0  0  0  0  0  0
   -2.6609   -2.4841    0.3945 H   0  0  0  0  0  0  0  0  0  0  0  0
   -4.2405    1.3022   -0.8587 H   0  0  0  0  0  0  0  0  0  0  0  0
   -4.5836   -1.0804   -0.2668 H   0  0  0  0  0  0  0  0  0  0  0  0
  2  1  1  0
  3  1  1  0
  4  3  1  0
  5  2  2  3
  6  1  1  0
  7  8  1  0
  8  6  1  0
  9  2  1  0
 10  4  2  0
 11  7  2  0
 12 10  1  0
 13 11  1  0
  4  7  1  0
 12 13  2  0
 15 14  2  0
 16 14  2  0
 17 14  1  0
 18 14  1  0
 20 19  1  0
 21 19  1  0
 22 21  1  0
 23 20  2  3
 24 19  1  0
 25 26  1  0
 26 24  1  0
 27 20  1  0
 28 22  2  0
 29 25  2  0
 30 28  1  0
 31 29  1  0
 22 25  1  0
 30 31  2  0
  3 32  1  0
  3 33  1  0
  5 34  1  0
  6 35  1  0
  6 36  1  0
  8 37  1  0
  8 38  1  0
  9 39  1  0
  9 40  1  0
 10 41  1  0
 11 42  1  0
 12 43  1  0
 13 44  1  0
 17 45  1  0
 18 46  1  0
 21 47  1  0
 21 48  1  0
 23 49  1  0
 24 50  1  0
 24 51  1  0
 26 52  1  0
 26 53  1  0
 27 54  1  0
 27 55  1  0
 28 56  1  0
 29 57  1  0
 30 58  1  0
 31 59  1  0
M  END
$$$$
