
     RDKit          3D

 73 77  0  0  0  0  0  0  0  0999 V2000
    0.3492   -0.8276    2.0739 O   0  0  0  0  0  0  0  0  0  0  0  0
   -2.1171   -2.7278    0.9636 O   0  0  0  0  0  0  0  0  0  0  0  0
    1.8785    0.2457    3.9088 O   0  0  0  0  0  0  0  0  0  0  0  0
   -5.6084   -0.9180    2.3579 O   0  0  0  0  0  0  0  0  0  0  0  0
    3.8827    1.0426    3.3170 O   0  0  0  0  0  0  0  0  0  0  0  0
   -4.2175   -2.6595    2.3865 O   0  0  0  0  0  0  0  0  0  0  0  0
    1.1370   -0.8372   -0.1791 C   0  0  0  0  0  0  0  0  0  0  0  0
   -1.4732   -0.7495   -0.1958 C   0  0  0  0  0  0  0  0  0  0  0  0
    2.2018   -0.6138   -1.1158 C   0  0  0  0  0  0  0  0  0  0  0  0
   -1.7696    0.5800   -0.6359 C   0  0  0  0  0  0  0  0  0  0  0  0
    1.3434   -0.5093    1.1806 C   0  0  0  0  0  0  0  0  0  0  0  0
   -2.3977   -1.4237    0.6343 C   0  0  0  0  0  0  0  0  0  0  0  0
   -0.1893   -1.4714   -0.6102 C   0  0  0  0  0  0  0  0  0  0  0  0
    3.3972    0.0045   -0.6607 C   0  0  0  0  0  0  0  0  0  0  0  0
   -2.9526    1.2099   -0.1700 C   0  0  0  0  0  0  0  0  0  0  0  0
    2.5303    0.1009    1.6103 C   0  0  0  0  0  0  0  0  0  0  0  0
   -3.5601   -0.7878    1.0898 C   0  0  0  0  0  0  0  0  0  0  0  0
    3.5414    0.3619    0.6842 C   0  0  0  0  0  0  0  0  0  0  0  0
   -3.8211    0.5259    0.6886 C   0  0  0  0  0  0  0  0  0  0  0  0
    2.1609   -0.9679   -2.4892 C   0  0  0  0  0  0  0  0  0  0  0  0
   -0.9617    1.3259   -1.5269 C   0  0  0  0  0  0  0  0  0  0  0  0
    2.7071    0.4553    3.0385 C   0  0  0  0  0  0  0  0  0  0  0  0
   -4.5642   -1.4195    1.9837 C   0  0  0  0  0  0  0  0  0  0  0  0
    4.4551    0.2616   -1.5493 C   0  0  0  0  0  0  0  0  0  0  0  0
   -3.2679    2.5204   -0.5681 C   0  0  0  0  0  0  0  0  0  0  0  0
    3.2225   -0.7085   -3.3619 C   0  0  0  0  0  0  0  0  0  0  0  0
   -1.2875    2.6278   -1.9184 C   0  0  0  0  0  0  0  0  0  0  0  0
    4.3693   -0.0900   -2.8924 C   0  0  0  0  0  0  0  0  0  0  0  0
   -2.4399    3.2268   -1.4352 C   0  0  0  0  0  0  0  0  0  0  0  0
    4.0450    0.8414   -1.4254 S   0  0  0  0  0  0  0  0  0  0  0  0
   -1.8713    0.0686    0.7309 N   0  0  0  0  0  0  0  0  0  0  0  0
   -1.1528   -0.3210   -1.5013 N   0  0  0  0  0  0  0  0  0  0  0  0
   -0.8976   -0.1389   -0.2426 C   0  0  0  0  0  0  0  0  0  0  0  0
    0.5497   -0.2269    0.1455 C   0  0  0  0  0  0  0  0  0  0  0  0
    2.8977    0.1046   -0.3642 C   0  0  0  0  0  0  0  0  0  0  0  0
    1.5131    0.1708   -0.6994 C   0  0  0  0  0  0  0  0  0  0  0  0
   -3.2723    0.1536    0.3332 C   0  0  0  0  0  0  0  0  0  0  0  0
   -2.5365   -0.2689   -1.9610 C   0  0  0  0  0  0  0  0  0  0  0  0
   -3.5047   -0.7128   -0.8855 C   0  0  0  0  0  0  0  0  0  0  0  0
    3.5526   -0.4757    0.7116 C   0  0  0  0  0  0  0  0  0  0  0  0
   -1.5571    0.7143    2.0006 C   0  0  0  0  0  0  0  0  0  0  0  0
    5.3673    0.3922   -0.4444 C   0  0  0  0  0  0  0  0  0  0  0  0
    4.9681   -0.3083    0.6686 C   0  0  0  0  0  0  0  0  0  0  0  0
    0.5943   -0.5182    2.9719 H   0  0  0  0  0  0  0  0  0  0  0  0
   -2.7814   -3.0252    1.6194 H   0  0  0  0  0  0  0  0  0  0  0  0
    3.8514    1.2085    4.2825 H   0  0  0  0  0  0  0  0  0  0  0  0
   -4.9676   -2.9147    2.9695 H   0  0  0  0  0  0  0  0  0  0  0  0
   -0.1627   -2.5035   -0.2411 H   0  0  0  0  0  0  0  0  0  0  0  0
   -0.2663   -1.5786   -1.6946 H   0  0  0  0  0  0  0  0  0  0  0  0
    4.4627    0.8367    1.0163 H   0  0  0  0  0  0  0  0  0  0  0  0
   -4.7262    1.0181    1.0441 H   0  0  0  0  0  0  0  0  0  0  0  0
    1.2966   -1.4645   -2.9202 H   0  0  0  0  0  0  0  0  0  0  0  0
   -0.0562    0.9007   -1.9459 H   0  0  0  0  0  0  0  0  0  0  0  0
    5.3688    0.7381   -1.1969 H   0  0  0  0  0  0  0  0  0  0  0  0
   -4.1727    3.0047   -0.2050 H   0  0  0  0  0  0  0  0  0  0  0  0
    3.1471   -0.9954   -4.4076 H   0  0  0  0  0  0  0  0  0  0  0  0
   -0.6364    3.1655   -2.6019 H   0  0  0  0  0  0  0  0  0  0  0  0
    5.1988    0.1121   -3.5645 H   0  0  0  0  0  0  0  0  0  0  0  0
   -2.6989    4.2379   -1.7349 H   0  0  0  0  0  0  0  0  0  0  0  0
    0.7554   -0.6240    1.1294 H   0  0  0  0  0  0  0  0  0  0  0  0
    1.2339    0.5668   -1.6744 H   0  0  0  0  0  0  0  0  0  0  0  0
   -3.5335    1.1976    0.1191 H   0  0  0  0  0  0  0  0  0  0  0  0
   -3.9205   -0.1907    1.1477 H   0  0  0  0  0  0  0  0  0  0  0  0
   -2.7675    0.7480   -2.3003 H   0  0  0  0  0  0  0  0  0  0  0  0
   -2.6408   -0.9265   -2.8311 H   0  0  0  0  0  0  0  0  0  0  0  0
   -3.3330   -1.7677   -0.6382 H   0  0  0  0  0  0  0  0  0  0  0  0
   -4.5381   -0.6170   -1.2346 H   0  0  0  0  0  0  0  0  0  0  0  0
    3.0454   -1.0114    1.5029 H   0  0  0  0  0  0  0  0  0  0  0  0
   -1.1847    1.7296    1.8296 H   0  0  0  0  0  0  0  0  0  0  0  0
   -0.8068    0.1472    2.5587 H   0  0  0  0  0  0  0  0  0  0  0  0
   -2.4406    0.7837    2.6448 H   0  0  0  0  0  0  0  0  0  0  0  0
    6.3740    0.6609   -0.7331 H   0  0  0  0  0  0  0  0  0  0  0  0
    5.6556   -0.6893    1.4130 H   0  0  0  0  0  0  0  0  0  0  0  0
  1 11  1  0
  2 12  1  0
  3 22  2  0
  4 23  2  0
  5 22  1  0
  6 23  1  0
  7  9  1  0
  7 11  2  0
  7 13  1  0
  8 10  1  0
  8 12  2  0
  8 13  1  0
  9 14  2  0
  9 20  1  0
 10 15  2  0
 10 21  1  0
 11 16  1  0
 12 17  1  0
 14 18  1  0
 14 24  1  0
 15 19  1  0
 15 25  1  0
 16 18  2  0
 16 22  1  0
 17 19  2  0
 17 23  1  0
 20 26  2  0
 21 27  2  0
 24 28  2  0
 25 29  2  0
 26 28  1  0
 27 29  1  0
 30 35  1  0
 30 42  1  0
 31 33  1  0
 31 37  1  0
 31 41  1  0
 32 33  2  0
 32 38  1  0
 33 34  1  0
 34 36  2  0
 35 36  1  0
 35 40  2  0
 37 39  1  0
 38 39  1  0
 40 43  1  0
 42 43  2  0
  1 44  1  0
  2 45  1  0
  5 46  1  0
  6 47  1  0
 13 48  1  0
 13 49  1  0
 18 50  1  0
 19 51  1  0
 20 52  1  0
 21 53  1  0
 24 54  1  0
 25 55  1  0
 26 56  1  0
 27 57  1  0
 28 58  1  0
 29 59  1  0
 34 60  1  0
 36 61  1  0
 37 62  1  0
 37 63  1  0
 38 64  1  0
 38 65  1  0
 39 66  1  0
 39 67  1  0
 40 68  1  0
 41 69  1  0
 41 70  1  0
 41 71  1  0
 42 72  1  0
 43 73  1  0
M  END
$$$$
