
     RDKit          3D

 73 77  0  0  0  0  0  0  0  0999 V2000
   -2.3946   -2.1707    1.4440 O   0  0  0  0  0  0  0  0  0  0  0  0
    0.6842   -2.1062    0.1453 O   0  0  0  0  0  0  0  0  0  0  0  0
   -4.8243   -3.3449   -1.7407 O   0  0  0  0  0  0  0  0  0  0  0  0
    4.7445   -2.1180   -0.8018 O   0  0  0  0  0  0  0  0  0  0  0  0
   -4.0218   -3.7441    0.2992 O   0  0  0  0  0  0  0  0  0  0  0  0
    2.7585   -3.1247   -0.8902 O   0  0  0  0  0  0  0  0  0  0  0  0
   -1.5764   -0.3001    0.2178 C   0  0  0  0  0  0  0  0  0  0  0  0
    0.8451    0.0534    1.1386 C   0  0  0  0  0  0  0  0  0  0  0  0
   -1.6239    0.5373   -0.9417 C   0  0  0  0  0  0  0  0  0  0  0  0
    1.6548    1.1478    1.5962 C   0  0  0  0  0  0  0  0  0  0  0  0
   -2.4070   -1.4427    0.2792 C   0  0  0  0  0  0  0  0  0  0  0  0
    1.4680   -1.0308    0.4764 C   0  0  0  0  0  0  0  0  0  0  0  0
   -0.6633    0.0137    1.4051 C   0  0  0  0  0  0  0  0  0  0  0  0
   -2.4530    0.1576   -2.0286 C   0  0  0  0  0  0  0  0  0  0  0  0
    3.0417    1.1457    1.2936 C   0  0  0  0  0  0  0  0  0  0  0  0
   -3.2186   -1.8068   -0.8033 C   0  0  0  0  0  0  0  0  0  0  0  0
    2.8390   -1.0154    0.1864 C   0  0  0  0  0  0  0  0  0  0  0  0
   -3.2261   -1.0067   -1.9497 C   0  0  0  0  0  0  0  0  0  0  0  0
    3.6083    0.0790    0.5884 C   0  0  0  0  0  0  0  0  0  0  0  0
   -0.8996    1.7447   -1.0859 C   0  0  0  0  0  0  0  0  0  0  0  0
    1.1764    2.2556    2.3432 C   0  0  0  0  0  0  0  0  0  0  0  0
   -4.0948   -3.0057   -0.8274 C   0  0  0  0  0  0  0  0  0  0  0  0
    3.5578   -2.0997   -0.5311 C   0  0  0  0  0  0  0  0  0  0  0  0
   -2.5109    0.9459   -3.1906 C   0  0  0  0  0  0  0  0  0  0  0  0
    3.8675    2.2074    1.7008 C   0  0  0  0  0  0  0  0  0  0  0  0
   -0.9673    2.5219   -2.2456 C   0  0  0  0  0  0  0  0  0  0  0  0
    2.0096    3.3044    2.7461 C   0  0  0  0  0  0  0  0  0  0  0  0
   -1.7709    2.1198   -3.3009 C   0  0  0  0  0  0  0  0  0  0  0  0
    3.3558    3.2823    2.4207 C   0  0  0  0  0  0  0  0  0  0  0  0
    3.6781    0.1641   -0.8147 S   0  0  0  0  0  0  0  0  0  0  0  0
   -1.7605    0.4044   -1.1339 N   0  0  0  0  0  0  0  0  0  0  0  0
   -1.3687   -0.2547    1.1161 N   0  0  0  0  0  0  0  0  0  0  0  0
   -0.9341    0.0619   -0.0655 C   0  0  0  0  0  0  0  0  0  0  0  0
    0.5561   -0.0076   -0.2553 C   0  0  0  0  0  0  0  0  0  0  0  0
    2.8181    0.0951    0.6802 C   0  0  0  0  0  0  0  0  0  0  0  0
    1.3938    0.1508    0.7806 C   0  0  0  0  0  0  0  0  0  0  0  0
   -3.2026    0.4770   -0.9339 C   0  0  0  0  0  0  0  0  0  0  0  0
   -2.8038   -0.2194    1.3784 C   0  0  0  0  0  0  0  0  0  0  0  0
   -3.6139   -0.5137    0.1342 C   0  0  0  0  0  0  0  0  0  0  0  0
    3.7158    0.0054    1.7349 C   0  0  0  0  0  0  0  0  0  0  0  0
   -1.2578    1.1328   -2.2916 C   0  0  0  0  0  0  0  0  0  0  0  0
    5.1976    0.0567   -0.0460 C   0  0  0  0  0  0  0  0  0  0  0  0
    5.0787   -0.0226    1.3210 C   0  0  0  0  0  0  0  0  0  0  0  0
   -2.9536   -2.9640    1.3121 H   0  0  0  0  0  0  0  0  0  0  0  0
    1.2399   -2.7647   -0.3197 H   0  0  0  0  0  0  0  0  0  0  0  0
   -4.6469   -4.4816    0.1159 H   0  0  0  0  0  0  0  0  0  0  0  0
    3.3784   -3.7309   -1.3550 H   0  0  0  0  0  0  0  0  0  0  0  0
   -0.8032   -0.6970    2.2279 H   0  0  0  0  0  0  0  0  0  0  0  0
   -1.0389    0.9612    1.7992 H   0  0  0  0  0  0  0  0  0  0  0  0
   -3.8572   -1.2921   -2.7910 H   0  0  0  0  0  0  0  0  0  0  0  0
    4.6742    0.0892    0.3609 H   0  0  0  0  0  0  0  0  0  0  0  0
   -0.2657    2.1125   -0.2854 H   0  0  0  0  0  0  0  0  0  0  0  0
    0.1346    2.3294    2.6409 H   0  0  0  0  0  0  0  0  0  0  0  0
   -3.1429    0.6505   -4.0261 H   0  0  0  0  0  0  0  0  0  0  0  0
    4.9300    2.2029    1.4631 H   0  0  0  0  0  0  0  0  0  0  0  0
   -0.3896    3.4397   -2.3164 H   0  0  0  0  0  0  0  0  0  0  0  0
    1.5998    4.1340    3.3165 H   0  0  0  0  0  0  0  0  0  0  0  0
   -1.8267    2.7179   -4.2059 H   0  0  0  0  0  0  0  0  0  0  0  0
    4.0091    4.0930    2.7311 H   0  0  0  0  0  0  0  0  0  0  0  0
    0.8970   -0.2002   -1.2626 H   0  0  0  0  0  0  0  0  0  0  0  0
    0.9784    0.3151    1.7733 H   0  0  0  0  0  0  0  0  0  0  0  0
   -3.4834    1.4965   -0.6426 H   0  0  0  0  0  0  0  0  0  0  0  0
   -3.7299    0.2396   -1.8653 H   0  0  0  0  0  0  0  0  0  0  0  0
   -3.0376   -0.9684    2.1430 H   0  0  0  0  0  0  0  0  0  0  0  0
   -3.0701    0.7584    1.7975 H   0  0  0  0  0  0  0  0  0  0  0  0
   -4.6853   -0.4299    0.3440 H   0  0  0  0  0  0  0  0  0  0  0  0
   -3.4202   -1.5389   -0.2059 H   0  0  0  0  0  0  0  0  0  0  0  0
    3.4009   -0.0456    2.7714 H   0  0  0  0  0  0  0  0  0  0  0  0
   -0.5472    0.5215   -2.8563 H   0  0  0  0  0  0  0  0  0  0  0  0
   -2.0645    1.4022   -2.9824 H   0  0  0  0  0  0  0  0  0  0  0  0
   -0.7653    2.0591   -1.9784 H   0  0  0  0  0  0  0  0  0  0  0  0
    6.1056    0.0581   -0.6330 H   0  0  0  0  0  0  0  0  0  0  0  0
    5.9250   -0.0967    1.9928 H   0  0  0  0  0  0  0  0  0  0  0  0
  1 11  1  0
  2 12  1  0
  3 22  2  0
  4 23  2  0
  5 22  1  0
  6 23  1  0
  7  9  1  0
  7 11  2  0
  7 13  1  0
  8 10  1  0
  8 12  2  0
  8 13  1  0
  9 14  2  0
  9 20  1  0
 10 15  2  0
 10 21  1  0
 11 16  1  0
 12 17  1  0
 14 18  1  0
 14 24  1  0
 15 19  1  0
 15 25  1  0
 16 18  2  0
 16 22  1  0
 17 19  2  0
 17 23  1  0
 20 26  2  0
 21 27  2  0
 24 28  2  0
 25 29  2  0
 26 28  1  0
 27 29  1  0
 30 35  1  0
 30 42  1  0
 31 33  1  0
 31 37  1  0
 31 41  1  0
 32 33  2  0
 32 38  1  0
 33 34  1  0
 34 36  2  0
 35 36  1  0
 35 40  2  0
 37 39  1  0
 38 39  1  0
 40 43  1  0
 42 43  2  0
  1 44  1  0
  2 45  1  0
  5 46  1  0
  6 47  1  0
 13 48  1  0
 13 49  1  0
 18 50  1  0
 19 51  1  0
 20 52  1  0
 21 53  1  0
 24 54  1  0
 25 55  1  0
 26 56  1  0
 27 57  1  0
 28 58  1  0
 29 59  1  0
 34 60  1  0
 36 61  1  0
 37 62  1  0
 37 63  1  0
 38 64  1  0
 38 65  1  0
 39 66  1  0
 39 67  1  0
 40 68  1  0
 41 69  1  0
 41 70  1  0
 41 71  1  0
 42 72  1  0
 43 73  1  0
M  END
$$$$
