
     RDKit          3D

 73 77  0  0  0  0  0  0  0  0999 V2000
    0.5405    0.0090    2.1769 O   0  0  0  0  0  0  0  0  0  0  0  0
   -1.8854    2.3014    2.0075 O   0  0  0  0  0  0  0  0  0  0  0  0
    2.1183   -1.7133    3.3618 O   0  0  0  0  0  0  0  0  0  0  0  0
   -5.3741    0.2388    3.0069 O   0  0  0  0  0  0  0  0  0  0  0  0
    4.0557   -2.2550    2.3816 O   0  0  0  0  0  0  0  0  0  0  0  0
   -3.9061    1.8498    3.4737 O   0  0  0  0  0  0  0  0  0  0  0  0
    1.1686    0.8039    0.0160 C   0  0  0  0  0  0  0  0  0  0  0  0
   -1.4377    0.8081    0.2070 C   0  0  0  0  0  0  0  0  0  0  0  0
    2.1527    0.9045   -1.0251 C   0  0  0  0  0  0  0  0  0  0  0  0
   -1.8402   -0.2851   -0.6244 C   0  0  0  0  0  0  0  0  0  0  0  0
    1.4504    0.0048    1.1477 C   0  0  0  0  0  0  0  0  0  0  0  0
   -2.2645    1.1948    1.2868 C   0  0  0  0  0  0  0  0  0  0  0  0
   -0.1457    1.5875   -0.0489 C   0  0  0  0  0  0  0  0  0  0  0  0
    3.3409    0.1323   -0.9224 C   0  0  0  0  0  0  0  0  0  0  0  0
   -3.0243   -0.9953   -0.2985 C   0  0  0  0  0  0  0  0  0  0  0  0
    2.6292   -0.7495    1.2305 C   0  0  0  0  0  0  0  0  0  0  0  0
   -3.4307    0.4832    1.5974 C   0  0  0  0  0  0  0  0  0  0  0  0
    3.5576   -0.6884    0.1899 C   0  0  0  0  0  0  0  0  0  0  0  0
   -3.7933   -0.6107    0.8061 C   0  0  0  0  0  0  0  0  0  0  0  0
    2.0376    1.7309   -2.1729 C   0  0  0  0  0  0  0  0  0  0  0  0
   -1.1385   -0.7144   -1.7764 C   0  0  0  0  0  0  0  0  0  0  0  0
    2.8838   -1.5986    2.4182 C   0  0  0  0  0  0  0  0  0  0  0  0
   -4.3371    0.8116    2.7274 C   0  0  0  0  0  0  0  0  0  0  0  0
    4.3206    0.1859   -1.9291 C   0  0  0  0  0  0  0  0  0  0  0  0
   -3.4410   -2.0854   -1.0816 C   0  0  0  0  0  0  0  0  0  0  0  0
    3.0222    1.7781   -3.1655 C   0  0  0  0  0  0  0  0  0  0  0  0
   -1.5641   -1.7987   -2.5491 C   0  0  0  0  0  0  0  0  0  0  0  0
    4.1632    1.0017   -3.0452 C   0  0  0  0  0  0  0  0  0  0  0  0
   -2.7144   -2.4879   -2.1987 C   0  0  0  0  0  0  0  0  0  0  0  0
    3.6571   -0.6217   -0.7329 S   0  0  0  0  0  0  0  0  0  0  0  0
   -1.8109   -0.9079   -0.5618 N   0  0  0  0  0  0  0  0  0  0  0  0
   -1.2991    1.2491    0.2949 N   0  0  0  0  0  0  0  0  0  0  0  0
   -0.9281    0.0985   -0.1771 C   0  0  0  0  0  0  0  0  0  0  0  0
    0.5532   -0.0897   -0.3465 C   0  0  0  0  0  0  0  0  0  0  0  0
    2.8423    0.4173    0.3772 C   0  0  0  0  0  0  0  0  0  0  0  0
    1.4207    0.5375    0.4625 C   0  0  0  0  0  0  0  0  0  0  0  0
   -3.2430   -0.7166   -0.3676 C   0  0  0  0  0  0  0  0  0  0  0  0
   -2.7211    1.5183    0.4810 C   0  0  0  0  0  0  0  0  0  0  0  0
   -3.5772    0.7531   -0.5048 C   0  0  0  0  0  0  0  0  0  0  0  0
    3.7726    1.0922    1.1555 C   0  0  0  0  0  0  0  0  0  0  0  0
   -1.3840   -2.2960   -0.6872 C   0  0  0  0  0  0  0  0  0  0  0  0
    5.2004   -0.1570   -0.1735 C   0  0  0  0  0  0  0  0  0  0  0  0
    5.1233    0.7655    0.8415 C   0  0  0  0  0  0  0  0  0  0  0  0
    0.8288   -0.6078    2.8822 H   0  0  0  0  0  0  0  0  0  0  0  0
   -2.4978    2.3937    2.7665 H   0  0  0  0  0  0  0  0  0  0  0  0
    4.0781   -2.7643    3.2188 H   0  0  0  0  0  0  0  0  0  0  0  0
   -4.6020    1.9238    4.1652 H   0  0  0  0  0  0  0  0  0  0  0  0
   -0.0283    2.4267    0.6468 H   0  0  0  0  0  0  0  0  0  0  0  0
   -0.2979    2.0623   -1.0212 H   0  0  0  0  0  0  0  0  0  0  0  0
    4.4727   -1.2745    0.2523 H   0  0  0  0  0  0  0  0  0  0  0  0
   -4.7001   -1.1636    1.0495 H   0  0  0  0  0  0  0  0  0  0  0  0
    1.1747    2.3728   -2.3235 H   0  0  0  0  0  0  0  0  0  0  0  0
   -0.2396   -0.2028   -2.1040 H   0  0  0  0  0  0  0  0  0  0  0  0
    5.2288   -0.4091   -1.8477 H   0  0  0  0  0  0  0  0  0  0  0  0
   -4.3462   -2.6336   -0.8266 H   0  0  0  0  0  0  0  0  0  0  0  0
    2.8920    2.4269   -4.0281 H   0  0  0  0  0  0  0  0  0  0  0  0
   -0.9909   -2.0980   -3.4231 H   0  0  0  0  0  0  0  0  0  0  0  0
    4.9339    1.0361   -3.8112 H   0  0  0  0  0  0  0  0  0  0  0  0
   -3.0505   -3.3324   -2.7937 H   0  0  0  0  0  0  0  0  0  0  0  0
    0.8587   -0.7464   -1.1485 H   0  0  0  0  0  0  0  0  0  0  0  0
    1.0310    1.1918    1.2404 H   0  0  0  0  0  0  0  0  0  0  0  0
   -3.5342   -1.0873    0.6229 H   0  0  0  0  0  0  0  0  0  0  0  0
   -3.8087   -1.2841   -1.1157 H   0  0  0  0  0  0  0  0  0  0  0  0
   -3.0020    1.2770    1.5129 H   0  0  0  0  0  0  0  0  0  0  0  0
   -2.8933    2.5918    0.3464 H   0  0  0  0  0  0  0  0  0  0  0  0
   -4.6401    0.9262   -0.3067 H   0  0  0  0  0  0  0  0  0  0  0  0
   -3.3695    1.0946   -1.5266 H   0  0  0  0  0  0  0  0  0  0  0  0
    3.4899    1.8018    1.9247 H   0  0  0  0  0  0  0  0  0  0  0  0
   -0.9494   -2.6497    0.2535 H   0  0  0  0  0  0  0  0  0  0  0  0
   -2.2226   -2.9558   -0.9362 H   0  0  0  0  0  0  0  0  0  0  0  0
   -0.6462   -2.4075   -1.4877 H   0  0  0  0  0  0  0  0  0  0  0  0
    6.0904   -0.5831   -0.6155 H   0  0  0  0  0  0  0  0  0  0  0  0
    5.9899    1.1880    1.3346 H   0  0  0  0  0  0  0  0  0  0  0  0
  1 11  1  0
  2 12  1  0
  3 22  2  0
  4 23  2  0
  5 22  1  0
  6 23  1  0
  7  9  1  0
  7 11  2  0
  7 13  1  0
  8 10  1  0
  8 12  2  0
  8 13  1  0
  9 14  2  0
  9 20  1  0
 10 15  2  0
 10 21  1  0
 11 16  1  0
 12 17  1  0
 14 18  1  0
 14 24  1  0
 15 19  1  0
 15 25  1  0
 16 18  2  0
 16 22  1  0
 17 19  2  0
 17 23  1  0
 20 26  2  0
 21 27  2  0
 24 28  2  0
 25 29  2  0
 26 28  1  0
 27 29  1  0
 30 35  1  0
 30 42  1  0
 31 33  1  0
 31 37  1  0
 31 41  1  0
 32 33  2  0
 32 38  1  0
 33 34  1  0
 34 36  2  0
 35 36  1  0
 35 40  2  0
 37 39  1  0
 38 39  1  0
 40 43  1  0
 42 43  2  0
  1 44  1  0
  2 45  1  0
  5 46  1  0
  6 47  1  0
 13 48  1  0
 13 49  1  0
 18 50  1  0
 19 51  1  0
 20 52  1  0
 21 53  1  0
 24 54  1  0
 25 55  1  0
 26 56  1  0
 27 57  1  0
 28 58  1  0
 29 59  1  0
 34 60  1  0
 36 61  1  0
 37 62  1  0
 37 63  1  0
 38 64  1  0
 38 65  1  0
 39 66  1  0
 39 67  1  0
 40 68  1  0
 41 69  1  0
 41 70  1  0
 41 71  1  0
 42 72  1  0
 43 73  1  0
M  END
$$$$
