
     RDKit          3D

 73 77  0  0  0  0  0  0  0  0999 V2000
    1.0316   -2.1409    0.0267 O   0  0  0  0  0  0  0  0  0  0  0  0
   -1.0531    2.1278   -0.4003 O   0  0  0  0  0  0  0  0  0  0  0  0
    2.8508   -2.9617    1.7227 O   0  0  0  0  0  0  0  0  0  0  0  0
   -2.7391    3.3454    1.1926 O   0  0  0  0  0  0  0  0  0  0  0  0
    4.6045   -1.6399    2.1535 O   0  0  0  0  0  0  0  0  0  0  0  0
   -4.4258    2.1748    2.0839 O   0  0  0  0  0  0  0  0  0  0  0  0
    1.2568    0.0473   -0.8859 C   0  0  0  0  0  0  0  0  0  0  0  0
   -1.3242   -0.2140   -0.7389 C   0  0  0  0  0  0  0  0  0  0  0  0
    2.0304    1.2442   -1.0528 C   0  0  0  0  0  0  0  0  0  0  0  0
   -2.0896   -1.4115   -0.5428 C   0  0  0  0  0  0  0  0  0  0  0  0
    1.7548   -0.9756   -0.0484 C   0  0  0  0  0  0  0  0  0  0  0  0
   -1.7623    0.9829   -0.1296 C   0  0  0  0  0  0  0  0  0  0  0  0
   -0.0699   -0.1780   -1.6144 C   0  0  0  0  0  0  0  0  0  0  0  0
    3.2549    1.3747   -0.3431 C   0  0  0  0  0  0  0  0  0  0  0  0
   -3.2408   -1.3624    0.2885 C   0  0  0  0  0  0  0  0  0  0  0  0
    2.9573   -0.8228    0.6552 C   0  0  0  0  0  0  0  0  0  0  0  0
   -2.8954    1.0104    0.6950 C   0  0  0  0  0  0  0  0  0  0  0  0
    3.6948    0.3519    0.5047 C   0  0  0  0  0  0  0  0  0  0  0  0
   -3.6212   -0.1632    0.9009 C   0  0  0  0  0  0  0  0  0  0  0  0
    1.6723    2.3316   -1.8898 C   0  0  0  0  0  0  0  0  0  0  0  0
   -1.7907   -2.6690   -1.1256 C   0  0  0  0  0  0  0  0  0  0  0  0
    3.4386   -1.9078    1.5418 C   0  0  0  0  0  0  0  0  0  0  0  0
   -3.3196    2.2808    1.3282 C   0  0  0  0  0  0  0  0  0  0  0  0
    4.0455    2.5285   -0.4819 C   0  0  0  0  0  0  0  0  0  0  0  0
   -4.0178   -2.5129    0.5075 C   0  0  0  0  0  0  0  0  0  0  0  0
    2.4689    3.4737   -2.0205 C   0  0  0  0  0  0  0  0  0  0  0  0
   -2.5729   -3.8063   -0.9016 C   0  0  0  0  0  0  0  0  0  0  0  0
    3.6576    3.5717   -1.3166 C   0  0  0  0  0  0  0  0  0  0  0  0
   -3.6882   -3.7281   -0.0841 C   0  0  0  0  0  0  0  0  0  0  0  0
    3.5871    0.5236   -1.4737 S   0  0  0  0  0  0  0  0  0  0  0  0
   -1.5909   -0.7244   -0.1096 N   0  0  0  0  0  0  0  0  0  0  0  0
   -1.6150    1.5675   -0.7764 N   0  0  0  0  0  0  0  0  0  0  0  0
   -0.9864    0.4559   -0.5447 C   0  0  0  0  0  0  0  0  0  0  0  0
    0.4885    0.5752   -0.7650 C   0  0  0  0  0  0  0  0  0  0  0  0
    2.7731    0.1646    0.0034 C   0  0  0  0  0  0  0  0  0  0  0  0
    1.3550    0.0459    0.1110 C   0  0  0  0  0  0  0  0  0  0  0  0
   -3.0300   -0.7191    0.1587 C   0  0  0  0  0  0  0  0  0  0  0  0
   -3.0584    1.6130   -0.5687 C   0  0  0  0  0  0  0  0  0  0  0  0
   -3.4857    0.6734    0.5384 C   0  0  0  0  0  0  0  0  0  0  0  0
    3.6994   -0.0223    1.0188 C   0  0  0  0  0  0  0  0  0  0  0  0
   -1.1068   -2.0203   -0.5865 C   0  0  0  0  0  0  0  0  0  0  0  0
    5.1268    0.4594   -0.7422 C   0  0  0  0  0  0  0  0  0  0  0  0
    5.0491    0.1511    0.5949 C   0  0  0  0  0  0  0  0  0  0  0  0
    1.4378   -2.7438    0.6859 H   0  0  0  0  0  0  0  0  0  0  0  0
   -1.4203    2.8766    0.1161 H   0  0  0  0  0  0  0  0  0  0  0  0
    4.7848   -2.4341    2.6991 H   0  0  0  0  0  0  0  0  0  0  0  0
   -4.5771    3.0796    2.4294 H   0  0  0  0  0  0  0  0  0  0  0  0
   -0.2467    0.5725   -2.3900 H   0  0  0  0  0  0  0  0  0  0  0  0
    0.0448   -1.0890   -2.2090 H   0  0  0  0  0  0  0  0  0  0  0  0
    4.6313    0.4713    1.0459 H   0  0  0  0  0  0  0  0  0  0  0  0
   -4.5038   -0.1444    1.5371 H   0  0  0  0  0  0  0  0  0  0  0  0
    0.7443    2.3222   -2.4541 H   0  0  0  0  0  0  0  0  0  0  0  0
   -0.9196   -2.7982   -1.7611 H   0  0  0  0  0  0  0  0  0  0  0  0
    4.9817    2.6247    0.0650 H   0  0  0  0  0  0  0  0  0  0  0  0
   -4.8968   -2.4714    1.1480 H   0  0  0  0  0  0  0  0  0  0  0  0
    2.1488    4.2844   -2.6696 H   0  0  0  0  0  0  0  0  0  0  0  0
   -2.2992   -4.7506   -1.3641 H   0  0  0  0  0  0  0  0  0  0  0  0
    4.2799    4.4570   -1.4118 H   0  0  0  0  0  0  0  0  0  0  0  0
   -4.2982   -4.6084    0.0969 H   0  0  0  0  0  0  0  0  0  0  0  0
    0.7816    1.2003   -1.6003 H   0  0  0  0  0  0  0  0  0  0  0  0
    0.9687   -0.4754    0.9845 H   0  0  0  0  0  0  0  0  0  0  0  0
   -3.2575   -1.4136    0.9755 H   0  0  0  0  0  0  0  0  0  0  0  0
   -3.5755   -1.0619   -0.7302 H   0  0  0  0  0  0  0  0  0  0  0  0
   -3.5700    1.3785   -1.5097 H   0  0  0  0  0  0  0  0  0  0  0  0
   -3.3403    2.6364   -0.2970 H   0  0  0  0  0  0  0  0  0  0  0  0
   -4.5727    0.6995    0.6675 H   0  0  0  0  0  0  0  0  0  0  0  0
   -3.0293    0.9753    1.4895 H   0  0  0  0  0  0  0  0  0  0  0  0
    3.4172   -0.2630    2.0367 H   0  0  0  0  0  0  0  0  0  0  0  0
   -0.0238   -2.1320   -0.4899 H   0  0  0  0  0  0  0  0  0  0  0  0
   -1.5592   -2.8345   -0.0081 H   0  0  0  0  0  0  0  0  0  0  0  0
   -1.3757   -2.1582   -1.6400 H   0  0  0  0  0  0  0  0  0  0  0  0
    6.0162    0.6472   -1.3282 H   0  0  0  0  0  0  0  0  0  0  0  0
    5.9145    0.0580    1.2395 H   0  0  0  0  0  0  0  0  0  0  0  0
  1 11  1  0
  2 12  1  0
  3 22  2  0
  4 23  2  0
  5 22  1  0
  6 23  1  0
  7  9  1  0
  7 11  2  0
  7 13  1  0
  8 10  1  0
  8 12  2  0
  8 13  1  0
  9 14  2  0
  9 20  1  0
 10 15  2  0
 10 21  1  0
 11 16  1  0
 12 17  1  0
 14 18  1  0
 14 24  1  0
 15 19  1  0
 15 25  1  0
 16 18  2  0
 16 22  1  0
 17 19  2  0
 17 23  1  0
 20 26  2  0
 21 27  2  0
 24 28  2  0
 25 29  2  0
 26 28  1  0
 27 29  1  0
 30 35  1  0
 30 42  1  0
 31 33  1  0
 31 37  1  0
 31 41  1  0
 32 33  2  0
 32 38  1  0
 33 34  1  0
 34 36  2  0
 35 36  1  0
 35 40  2  0
 37 39  1  0
 38 39  1  0
 40 43  1  0
 42 43  2  0
  1 44  1  0
  2 45  1  0
  5 46  1  0
  6 47  1  0
 13 48  1  0
 13 49  1  0
 18 50  1  0
 19 51  1  0
 20 52  1  0
 21 53  1  0
 24 54  1  0
 25 55  1  0
 26 56  1  0
 27 57  1  0
 28 58  1  0
 29 59  1  0
 34 60  1  0
 36 61  1  0
 37 62  1  0
 37 63  1  0
 38 64  1  0
 38 65  1  0
 39 66  1  0
 39 67  1  0
 40 68  1  0
 41 69  1  0
 41 70  1  0
 41 71  1  0
 42 72  1  0
 43 73  1  0
M  END
$$$$
