
     RDKit          3D

 73 77  0  0  0  0  0  0  0  0999 V2000
   -0.5514    2.0838   -0.4464 O   0  0  0  0  0  0  0  0  0  0  0  0
    1.4092    2.4125    2.2487 O   0  0  0  0  0  0  0  0  0  0  0  0
   -3.5316    1.8581   -3.3520 O   0  0  0  0  0  0  0  0  0  0  0  0
    5.1945    3.1707    0.6599 O   0  0  0  0  0  0  0  0  0  0  0  0
   -1.7138    2.8703   -2.5539 O   0  0  0  0  0  0  0  0  0  0  0  0
    3.4824    3.8367    1.9217 O   0  0  0  0  0  0  0  0  0  0  0  0
   -1.3283    0.0960    0.6130 C   0  0  0  0  0  0  0  0  0  0  0  0
    1.2374    0.3687    1.0383 C   0  0  0  0  0  0  0  0  0  0  0  0
   -2.3237   -0.9322    0.7361 C   0  0  0  0  0  0  0  0  0  0  0  0
    1.8282   -0.6240    0.1937 C   0  0  0  0  0  0  0  0  0  0  0  0
   -1.4550    1.0524   -0.4219 C   0  0  0  0  0  0  0  0  0  0  0  0
    1.9800    1.5257    1.3682 C   0  0  0  0  0  0  0  0  0  0  0  0
   -0.1719    0.2072    1.6122 C   0  0  0  0  0  0  0  0  0  0  0  0
   -3.3564   -1.0045   -0.2353 C   0  0  0  0  0  0  0  0  0  0  0  0
    3.1182   -0.3856   -0.3460 C   0  0  0  0  0  0  0  0  0  0  0  0
   -2.4789    0.9628   -1.3746 C   0  0  0  0  0  0  0  0  0  0  0  0
    3.2523    1.7486    0.8260 C   0  0  0  0  0  0  0  0  0  0  0  0
   -3.4125   -0.0714   -1.2760 C   0  0  0  0  0  0  0  0  0  0  0  0
    3.8043    0.7938   -0.0330 C   0  0  0  0  0  0  0  0  0  0  0  0
   -2.3649   -1.9030    1.7705 C   0  0  0  0  0  0  0  0  0  0  0  0
    1.2150   -1.8547   -0.1430 C   0  0  0  0  0  0  0  0  0  0  0  0
   -2.6543    1.9047   -2.5097 C   0  0  0  0  0  0  0  0  0  0  0  0
    4.0821    2.9493    1.1012 C   0  0  0  0  0  0  0  0  0  0  0  0
   -4.3391   -2.0064   -0.1651 C   0  0  0  0  0  0  0  0  0  0  0  0
    3.7227   -1.3302   -1.1929 C   0  0  0  0  0  0  0  0  0  0  0  0
   -3.3495   -2.8941    1.8303 C   0  0  0  0  0  0  0  0  0  0  0  0
    1.8271   -2.7870   -0.9852 C   0  0  0  0  0  0  0  0  0  0  0  0
   -4.3358   -2.9480    0.8594 C   0  0  0  0  0  0  0  0  0  0  0  0
    3.0809   -2.5228   -1.5140 C   0  0  0  0  0  0  0  0  0  0  0  0
    3.2733   -1.6395    0.8040 S   0  0  0  0  0  0  0  0  0  0  0  0
   -2.0055   -0.2738    0.4956 N   0  0  0  0  0  0  0  0  0  0  0  0
   -0.9862    1.0520   -1.1898 N   0  0  0  0  0  0  0  0  0  0  0  0
   -0.9114    0.1616   -0.2475 C   0  0  0  0  0  0  0  0  0  0  0  0
    0.4503   -0.4338   -0.0141 C   0  0  0  0  0  0  0  0  0  0  0  0
    2.8906   -0.2739   -0.1791 C   0  0  0  0  0  0  0  0  0  0  0  0
    1.5650    0.2258   -0.3647 C   0  0  0  0  0  0  0  0  0  0  0  0
   -3.3227    0.2997    0.2583 C   0  0  0  0  0  0  0  0  0  0  0  0
   -2.2748    1.6738   -1.4770 C   0  0  0  0  0  0  0  0  0  0  0  0
   -3.4300    0.7402   -1.1857 C   0  0  0  0  0  0  0  0  0  0  0  0
    4.0534    0.2543   -0.7222 C   0  0  0  0  0  0  0  0  0  0  0  0
   -1.8586   -1.0175    1.7391 C   0  0  0  0  0  0  0  0  0  0  0  0
    4.9444   -1.5136    0.4808 C   0  0  0  0  0  0  0  0  0  0  0  0
    5.2302   -0.4571   -0.3500 C   0  0  0  0  0  0  0  0  0  0  0  0
   -0.7293    2.6340   -1.2365 H   0  0  0  0  0  0  0  0  0  0  0  0
    2.0017    3.1885    2.3256 H   0  0  0  0  0  0  0  0  0  0  0  0
   -1.9632    3.3793   -3.3574 H   0  0  0  0  0  0  0  0  0  0  0  0
    4.1532    4.5525    1.9946 H   0  0  0  0  0  0  0  0  0  0  0  0
   -0.4371    1.0297    2.2869 H   0  0  0  0  0  0  0  0  0  0  0  0
   -0.1041   -0.6672    2.2639 H   0  0  0  0  0  0  0  0  0  0  0  0
   -4.2081   -0.1392   -2.0180 H   0  0  0  0  0  0  0  0  0  0  0  0
    4.7938    0.9690   -0.4546 H   0  0  0  0  0  0  0  0  0  0  0  0
   -1.6297   -1.9096    2.5697 H   0  0  0  0  0  0  0  0  0  0  0  0
    0.2398   -2.1183    0.2535 H   0  0  0  0  0  0  0  0  0  0  0  0
   -5.1275   -2.0593   -0.9140 H   0  0  0  0  0  0  0  0  0  0  0  0
    4.7104   -1.1438   -1.6107 H   0  0  0  0  0  0  0  0  0  0  0  0
   -3.3417   -3.6184    2.6412 H   0  0  0  0  0  0  0  0  0  0  0  0
    1.3185   -3.7177   -1.2222 H   0  0  0  0  0  0  0  0  0  0  0  0
   -5.1056   -3.7136    0.9008 H   0  0  0  0  0  0  0  0  0  0  0  0
    3.5616   -3.2431   -2.1699 H   0  0  0  0  0  0  0  0  0  0  0  0
    0.4685   -1.4143    0.4395 H   0  0  0  0  0  0  0  0  0  0  0  0
    1.4720    1.2015   -0.8386 H   0  0  0  0  0  0  0  0  0  0  0  0
   -4.1047   -0.4397    0.4647 H   0  0  0  0  0  0  0  0  0  0  0  0
   -3.4800    1.1488    0.9334 H   0  0  0  0  0  0  0  0  0  0  0  0
   -2.3655    2.6012   -0.8998 H   0  0  0  0  0  0  0  0  0  0  0  0
   -2.2976    1.9526   -2.5360 H   0  0  0  0  0  0  0  0  0  0  0  0
   -3.3841   -0.1320   -1.8502 H   0  0  0  0  0  0  0  0  0  0  0  0
   -4.3858    1.2432   -1.3654 H   0  0  0  0  0  0  0  0  0  0  0  0
    4.0563    1.1225   -1.3724 H   0  0  0  0  0  0  0  0  0  0  0  0
   -1.4812   -2.0255    1.5397 H   0  0  0  0  0  0  0  0  0  0  0  0
   -1.1703   -0.5049    2.4200 H   0  0  0  0  0  0  0  0  0  0  0  0
   -2.8147   -1.1279    2.2623 H   0  0  0  0  0  0  0  0  0  0  0  0
    5.6373   -2.2198    0.9164 H   0  0  0  0  0  0  0  0  0  0  0  0
    6.2319   -0.2040   -0.6754 H   0  0  0  0  0  0  0  0  0  0  0  0
  1 11  1  0
  2 12  1  0
  3 22  2  0
  4 23  2  0
  5 22  1  0
  6 23  1  0
  7  9  1  0
  7 11  2  0
  7 13  1  0
  8 10  1  0
  8 12  2  0
  8 13  1  0
  9 14  2  0
  9 20  1  0
 10 15  2  0
 10 21  1  0
 11 16  1  0
 12 17  1  0
 14 18  1  0
 14 24  1  0
 15 19  1  0
 15 25  1  0
 16 18  2  0
 16 22  1  0
 17 19  2  0
 17 23  1  0
 20 26  2  0
 21 27  2  0
 24 28  2  0
 25 29  2  0
 26 28  1  0
 27 29  1  0
 30 35  1  0
 30 42  1  0
 31 33  1  0
 31 37  1  0
 31 41  1  0
 32 33  2  0
 32 38  1  0
 33 34  1  0
 34 36  2  0
 35 36  1  0
 35 40  2  0
 37 39  1  0
 38 39  1  0
 40 43  1  0
 42 43  2  0
  1 44  1  0
  2 45  1  0
  5 46  1  0
  6 47  1  0
 13 48  1  0
 13 49  1  0
 18 50  1  0
 19 51  1  0
 20 52  1  0
 21 53  1  0
 24 54  1  0
 25 55  1  0
 26 56  1  0
 27 57  1  0
 28 58  1  0
 29 59  1  0
 34 60  1  0
 36 61  1  0
 37 62  1  0
 37 63  1  0
 38 64  1  0
 38 65  1  0
 39 66  1  0
 39 67  1  0
 40 68  1  0
 41 69  1  0
 41 70  1  0
 41 71  1  0
 42 72  1  0
 43 73  1  0
M  END
$$$$
