
     RDKit          3D

 25 26  0  0  0  0  0  0  0  0999 V2000
    0.3133   -1.5385   -0.1127 C   0  0  0  0  0  0  0  0  0  0  0  0
   -0.9738   -0.7203   -0.2337 C   0  0  0  0  0  0  0  0  0  0  0  0
   -2.0807   -1.3337    0.0662 N   0  0  0  0  0  0  0  0  0  0  0  0
    1.6061   -0.8295   -0.1895 C   0  0  0  0  0  0  0  0  0  0  0  0
   -3.4798    0.3918    0.9711 C   0  0  0  0  0  0  0  0  0  0  0  0
   -0.8148    0.6767   -0.7259 C   0  0  0  0  0  0  0  0  0  0  0  0
    0.3921    1.2367   -0.8638 C   0  0  0  0  0  0  0  0  0  0  0  0
   -3.2689   -0.6406    0.0709 N   0  0  0  0  0  0  0  0  0  0  0  0
    1.6274    0.5212   -0.5508 C   0  0  0  0  0  0  0  0  0  0  0  0
    0.2727   -2.7537    0.0319 O   0  0  0  0  0  0  0  0  0  0  0  0
   -2.6473    0.9445    1.6768 O   0  0  0  0  0  0  0  0  0  0  0  0
   -4.7850    0.7926    0.9864 N   0  0  0  0  0  0  0  0  0  0  0  0
    2.7957   -1.5168    0.0841 C   0  0  0  0  0  0  0  0  0  0  0  0
    2.8604    1.1812   -0.6292 C   0  0  0  0  0  0  0  0  0  0  0  0
    4.0165   -0.8487    0.0048 C   0  0  0  0  0  0  0  0  0  0  0  0
    4.0483    0.4989   -0.3503 C   0  0  0  0  0  0  0  0  0  0  0  0
   -1.7125    1.2364   -0.9524 H   0  0  0  0  0  0  0  0  0  0  0  0
    0.4712    2.2642   -1.2077 H   0  0  0  0  0  0  0  0  0  0  0  0
   -4.0599   -1.2779    0.0593 H   0  0  0  0  0  0  0  0  0  0  0  0
   -5.2723    0.7878    0.1017 H   0  0  0  0  0  0  0  0  0  0  0  0
   -4.9333    1.6235    1.5465 H   0  0  0  0  0  0  0  0  0  0  0  0
    2.7709   -2.5693    0.3603 H   0  0  0  0  0  0  0  0  0  0  0  0
    2.9118    2.2320   -0.9066 H   0  0  0  0  0  0  0  0  0  0  0  0
    4.9411   -1.3792    0.2200 H   0  0  0  0  0  0  0  0  0  0  0  0
    5.0008    1.0205   -0.4117 H   0  0  0  0  0  0  0  0  0  0  0  0
  2  1  1  0
  3  2  2  0
  4  1  1  0
  5  8  1  0
  6  2  1  0
  7  9  1  0
  8  3  1  0
  9  4  2  0
 10  1  2  0
 11  5  2  0
 12  5  1  0
 13  4  1  0
 14  9  1  0
 15 13  2  0
 16 15  1  0
  6  7  2  0
 14 16  2  0
  6 17  1  0
  7 18  1  0
  8 19  1  0
 12 20  1  0
 12 21  1  0
 13 22  1  0
 14 23  1  0
 15 24  1  0
 16 25  1  0
M  END
$$$$
