
     RDKit          3D

 25 26  0  0  0  0  0  0  0  0999 V2000
   -0.6284    1.3822    0.0817 C   0  0  0  0  0  0  0  0  0  0  0  0
    0.7676    0.8022    0.3159 C   0  0  0  0  0  0  0  0  0  0  0  0
    1.4857    1.3740    1.2379 N   0  0  0  0  0  0  0  0  0  0  0  0
   -1.5613    0.6421   -0.7914 C   0  0  0  0  0  0  0  0  0  0  0  0
    2.8037   -0.4072    2.1522 C   0  0  0  0  0  0  0  0  0  0  0  0
    1.1652   -0.3250   -0.5735 C   0  0  0  0  0  0  0  0  0  0  0  0
    0.2915   -0.9033   -1.4049 C   0  0  0  0  0  0  0  0  0  0  0  0
    2.7115    0.8461    1.5676 N   0  0  0  0  0  0  0  0  0  0  0  0
   -1.1004   -0.4696   -1.5035 C   0  0  0  0  0  0  0  0  0  0  0  0
   -0.9613    2.4414    0.5985 O   0  0  0  0  0  0  0  0  0  0  0  0
    1.9363   -1.2707    2.1843 O   0  0  0  0  0  0  0  0  0  0  0  0
    4.0451   -0.6598    2.6600 N   0  0  0  0  0  0  0  0  0  0  0  0
   -2.8914    1.0661   -0.9085 C   0  0  0  0  0  0  0  0  0  0  0  0
   -1.9930   -1.1588   -2.3344 C   0  0  0  0  0  0  0  0  0  0  0  0
   -3.7709    0.3712   -1.7371 C   0  0  0  0  0  0  0  0  0  0  0  0
   -3.3220   -0.7405   -2.4483 C   0  0  0  0  0  0  0  0  0  0  0  0
    2.1870   -0.6772   -0.5141 H   0  0  0  0  0  0  0  0  0  0  0  0
    0.6126   -1.7346   -2.0263 H   0  0  0  0  0  0  0  0  0  0  0  0
    3.3026    1.5386    2.0115 H   0  0  0  0  0  0  0  0  0  0  0  0
    4.5523    0.0984    3.0907 H   0  0  0  0  0  0  0  0  0  0  0  0
    4.0884   -1.5357    3.1672 H   0  0  0  0  0  0  0  0  0  0  0  0
   -3.2419    1.9347   -0.3541 H   0  0  0  0  0  0  0  0  0  0  0  0
   -1.6661   -2.0280   -2.9012 H   0  0  0  0  0  0  0  0  0  0  0  0
   -4.8044    0.6968   -1.8274 H   0  0  0  0  0  0  0  0  0  0  0  0
   -4.0080   -1.2834   -3.0946 H   0  0  0  0  0  0  0  0  0  0  0  0
  2  1  1  0
  3  2  2  0
  4  1  1  0
  5  8  1  0
  6  2  1  0
  7  9  1  0
  8  3  1  0
  9  4  2  0
 10  1  2  0
 11  5  2  0
 12  5  1  0
 13  4  1  0
 14  9  1  0
 15 13  2  0
 16 15  1  0
  6  7  2  0
 14 16  2  0
  6 17  1  0
  7 18  1  0
  8 19  1  0
 12 20  1  0
 12 21  1  0
 13 22  1  0
 14 23  1  0
 15 24  1  0
 16 25  1  0
M  END
$$$$
