
     RDKit          3D

 25 26  0  0  0  0  0  0  0  0999 V2000
   -0.3799    0.0827   -1.3232 C   0  0  0  0  0  0  0  0  0  0  0  0
    0.8137   -0.2026   -0.4079 C   0  0  0  0  0  0  0  0  0  0  0  0
    1.9948    0.0567   -0.8796 N   0  0  0  0  0  0  0  0  0  0  0  0
   -1.7192    0.1695   -0.7084 C   0  0  0  0  0  0  0  0  0  0  0  0
    4.3341    0.2538   -0.5509 C   0  0  0  0  0  0  0  0  0  0  0  0
    0.4873   -0.7614    0.9346 C   0  0  0  0  0  0  0  0  0  0  0  0
   -0.7692   -0.7663    1.3947 C   0  0  0  0  0  0  0  0  0  0  0  0
    3.0908   -0.1148   -0.0802 N   0  0  0  0  0  0  0  0  0  0  0  0
   -1.8901   -0.2362    0.6193 C   0  0  0  0  0  0  0  0  0  0  0  0
   -0.2337    0.2312   -2.5280 O   0  0  0  0  0  0  0  0  0  0  0  0
    4.6230    0.6907   -1.6551 O   0  0  0  0  0  0  0  0  0  0  0  0
    5.3087    0.0666    0.3909 N   0  0  0  0  0  0  0  0  0  0  0  0
   -2.8028    0.6415   -1.4594 C   0  0  0  0  0  0  0  0  0  0  0  0
   -3.1661   -0.1575    1.1914 C   0  0  0  0  0  0  0  0  0  0  0  0
   -4.0670    0.7189   -0.8778 C   0  0  0  0  0  0  0  0  0  0  0  0
   -4.2477    0.3211    0.4461 C   0  0  0  0  0  0  0  0  0  0  0  0
    1.2905   -1.1708    1.5317 H   0  0  0  0  0  0  0  0  0  0  0  0
   -0.9835   -1.1776    2.3776 H   0  0  0  0  0  0  0  0  0  0  0  0
    2.9735   -0.0259    0.9192 H   0  0  0  0  0  0  0  0  0  0  0  0
    6.2252    0.2466   -0.0045 H   0  0  0  0  0  0  0  0  0  0  0  0
    5.2612   -0.8137    0.8833 H   0  0  0  0  0  0  0  0  0  0  0  0
   -2.6620    0.9491   -2.4942 H   0  0  0  0  0  0  0  0  0  0  0  0
   -3.3360   -0.4682    2.2202 H   0  0  0  0  0  0  0  0  0  0  0  0
   -4.9101    1.0871   -1.4580 H   0  0  0  0  0  0  0  0  0  0  0  0
   -5.2354    0.3797    0.8985 H   0  0  0  0  0  0  0  0  0  0  0  0
  2  1  1  0
  3  2  2  0
  4  1  1  0
  5  8  1  0
  6  2  1  0
  7  9  1  0
  8  3  1  0
  9  4  2  0
 10  1  2  0
 11  5  2  0
 12  5  1  0
 13  4  1  0
 14  9  1  0
 15 13  2  0
 16 15  1  0
  6  7  2  0
 14 16  2  0
  6 17  1  0
  7 18  1  0
  8 19  1  0
 12 20  1  0
 12 21  1  0
 13 22  1  0
 14 23  1  0
 15 24  1  0
 16 25  1  0
M  END
$$$$
