
     RDKit          3D

 50 54  0  0  0  0  0  0  0  0999 V2000
   -5.0298   -1.4104    0.2737 C   0  0  1  0  0  0  0  0  0  0  0  0
   -5.8962   -1.4905   -0.9715 C   0  0  0  0  0  0  0  0  0  0  0  0
   -6.0216   -0.0050   -1.2504 C   0  0  2  0  0  0  0  0  0  0  0  0
   -4.7650    0.4548   -1.7582 O   0  0  0  0  0  0  0  0  0  0  0  0
   -3.6428    0.3142   -0.8778 C   0  0  1  0  0  0  0  0  0  0  0  0
   -3.7048   -0.9238   -0.1109 N   0  0  0  0  0  0  0  0  0  0  0  0
   -2.5985   -1.3138    0.6312 C   0  0  0  0  0  0  0  0  0  0  0  0
   -2.3518    0.3867   -1.7047 C   0  0  0  0  0  0  0  0  0  0  0  0
   -1.1802    0.1897   -0.8339 N   0  0  0  0  0  0  0  0  0  0  0  0
   -1.2654   -0.6710    0.2745 C   0  0  0  0  0  0  0  0  0  0  0  0
   -0.2020   -0.9644    1.0592 C   0  0  0  0  0  0  0  0  0  0  0  0
    0.0526    0.7259   -1.1758 C   0  0  0  0  0  0  0  0  0  0  0  0
    1.1934    0.5341   -0.4953 C   0  0  0  0  0  0  0  0  0  0  0  0
    1.1188   -0.3289    0.7142 C   0  0  0  0  0  0  0  0  0  0  0  0
   -6.3657    0.6081    0.1127 C   0  0  0  0  0  0  0  0  0  0  0  0
   -5.7577   -0.3672    1.1340 C   0  0  0  0  0  0  0  0  0  0  0  0
   -2.6639   -2.1466    1.5368 O   0  0  0  0  0  0  0  0  0  0  0  0
    2.1166   -0.5165    1.4114 O   0  0  0  0  0  0  0  0  0  0  0  0
   -0.2246   -1.8048    2.1620 O   0  0  0  0  0  0  0  0  0  0  0  0
    2.4354    1.1892   -0.9932 C   0  0  0  0  0  0  0  0  0  0  0  0
    3.5769    0.8985   -0.2952 N   0  0  0  0  0  0  0  0  0  0  0  0
    2.4214    1.9430   -1.9631 O   0  0  0  0  0  0  0  0  0  0  0  0
    4.8302    1.5480   -0.5932 C   0  0  0  0  0  0  0  0  0  0  0  0
    5.9718    0.9050    0.1303 C   0  0  0  0  0  0  0  0  0  0  0  0
    7.7226   -0.7799    0.2366 C   0  0  0  0  0  0  0  0  0  0  0  0
    6.6760   -0.1592   -0.4374 C   0  0  0  0  0  0  0  0  0  0  0  0
    6.3427    1.3270    1.4090 C   0  0  0  0  0  0  0  0  0  0  0  0
    7.3858    0.7206    2.1010 C   0  0  0  0  0  0  0  0  0  0  0  0
    8.0675   -0.3308    1.5040 C   0  0  0  0  0  0  0  0  0  0  0  0
    6.3494   -0.5997   -1.6604 F   0  0  0  0  0  0  0  0  0  0  0  0
    9.0743   -0.9208    2.1607 F   0  0  0  0  0  0  0  0  0  0  0  0
    5.6877    2.3404    1.9925 F   0  0  0  0  0  0  0  0  0  0  0  0
   -4.9528   -2.3751    0.7841 H   0  0  0  0  0  0  0  0  0  0  0  0
   -5.4057   -2.0353   -1.7848 H   0  0  0  0  0  0  0  0  0  0  0  0
   -6.8689   -1.9460   -0.7562 H   0  0  0  0  0  0  0  0  0  0  0  0
   -6.7856    0.2150   -2.0013 H   0  0  0  0  0  0  0  0  0  0  0  0
   -3.6526    1.1485   -0.1640 H   0  0  0  0  0  0  0  0  0  0  0  0
   -2.3071    1.3551   -2.2191 H   0  0  0  0  0  0  0  0  0  0  0  0
   -2.3575   -0.3848   -2.4857 H   0  0  0  0  0  0  0  0  0  0  0  0
    0.0365    1.3411   -2.0748 H   0  0  0  0  0  0  0  0  0  0  0  0
   -7.4514    0.6482    0.2556 H   0  0  0  0  0  0  0  0  0  0  0  0
   -5.9648    1.6194    0.2314 H   0  0  0  0  0  0  0  0  0  0  0  0
   -5.0969    0.1419    1.8431 H   0  0  0  0  0  0  0  0  0  0  0  0
   -6.5633   -0.8431    1.7056 H   0  0  0  0  0  0  0  0  0  0  0  0
   -1.1256   -2.1876    2.2445 H   0  0  0  0  0  0  0  0  0  0  0  0
    3.4896    0.3578    0.5672 H   0  0  0  0  0  0  0  0  0  0  0  0
    4.9961    1.5298   -1.6771 H   0  0  0  0  0  0  0  0  0  0  0  0
    4.7385    2.6045   -0.3141 H   0  0  0  0  0  0  0  0  0  0  0  0
    8.2588   -1.6036   -0.2205 H   0  0  0  0  0  0  0  0  0  0  0  0
    7.6596    1.0620    3.0927 H   0  0  0  0  0  0  0  0  0  0  0  0
  1  2  1  0
  2  3  1  0
  3  4  1  0
  4  5  1  0
  5  6  1  0
  1  6  1  0
  8  9  1  0
  9 10  1  0
  7 10  1  0
  5  8  1  0
  7  6  1  0
 12 13  2  0
 13 14  1  0
 11 14  1  0
  9 12  1  0
 11 10  2  0
  3 15  1  0
  1 16  1  0
 16 15  1  0
  7 17  2  0
 14 18  2  0
 11 19  1  0
 13 20  1  0
 20 21  1  0
 20 22  2  0
 21 23  1  0
 23 24  1  0
 25 26  2  0
 27 28  1  0
 28 29  2  0
 25 29  1  0
 26 24  1  0
 24 27  2  0
 26 30  1  0
 29 31  1  0
 27 32  1  0
  1 33  1  1
  2 34  1  0
  2 35  1  0
  3 36  1  6
  5 37  1  1
  8 38  1  0
  8 39  1  0
 12 40  1  0
 15 41  1  0
 15 42  1  0
 16 43  1  0
 16 44  1  0
 19 45  1  0
 21 46  1  0
 23 47  1  0
 23 48  1  0
 25 49  1  0
 28 50  1  0
M  END
$$$$
