
     RDKit          3D

 50 54  0  0  0  0  0  0  0  0999 V2000
   -5.1400    0.0164    0.2569 C   0  0  1  0  0  0  0  0  0  0  0  0
   -5.7701    0.3941    1.5862 C   0  0  0  0  0  0  0  0  0  0  0  0
   -5.0908   -0.6449    2.4564 C   0  0  2  0  0  0  0  0  0  0  0  0
   -3.7253   -0.2513    2.6262 O   0  0  0  0  0  0  0  0  0  0  0  0
   -2.9447   -0.1637    1.4266 C   0  0  1  0  0  0  0  0  0  0  0  0
   -3.7148    0.3441    0.3037 N   0  0  0  0  0  0  0  0  0  0  0  0
   -3.0588    0.6779   -0.8832 C   0  0  0  0  0  0  0  0  0  0  0  0
   -1.7318    0.7339    1.6962 C   0  0  0  0  0  0  0  0  0  0  0  0
   -0.9121    0.8487    0.4792 N   0  0  0  0  0  0  0  0  0  0  0  0
   -1.5380    0.8462   -0.7914 C   0  0  0  0  0  0  0  0  0  0  0  0
   -0.8266    0.9908   -1.9320 C   0  0  0  0  0  0  0  0  0  0  0  0
    0.4493    1.1078    0.5658 C   0  0  0  0  0  0  0  0  0  0  0  0
    1.2641    1.2667   -0.4868 C   0  0  0  0  0  0  0  0  0  0  0  0
    0.6574    1.1755   -1.8308 C   0  0  0  0  0  0  0  0  0  0  0  0
   -5.2322   -1.9532    1.6685 C   0  0  0  0  0  0  0  0  0  0  0  0
   -5.3376   -1.5054    0.2021 C   0  0  0  0  0  0  0  0  0  0  0  0
   -3.6860    0.8483   -1.9249 O   0  0  0  0  0  0  0  0  0  0  0  0
    1.3127    1.2106   -2.8708 O   0  0  0  0  0  0  0  0  0  0  0  0
   -1.3430    0.9534   -3.2119 O   0  0  0  0  0  0  0  0  0  0  0  0
    2.6899    1.5875   -0.2786 C   0  0  0  0  0  0  0  0  0  0  0  0
    3.3711    0.6512    0.4664 N   0  0  0  0  0  0  0  0  0  0  0  0
    3.1939    2.6043   -0.7353 O   0  0  0  0  0  0  0  0  0  0  0  0
    4.8111    0.7131    0.6154 C   0  0  0  0  0  0  0  0  0  0  0  0
    5.5279   -0.0606   -0.4532 C   0  0  0  0  0  0  0  0  0  0  0  0
    5.8429   -2.0999   -1.7475 C   0  0  0  0  0  0  0  0  0  0  0  0
    5.1703   -1.3752   -0.7695 C   0  0  0  0  0  0  0  0  0  0  0  0
    6.6132    0.4980   -1.1329 C   0  0  0  0  0  0  0  0  0  0  0  0
    7.3005   -0.2087   -2.1147 C   0  0  0  0  0  0  0  0  0  0  0  0
    6.9031   -1.5034   -2.4154 C   0  0  0  0  0  0  0  0  0  0  0  0
    4.1574   -1.9654   -0.1158 F   0  0  0  0  0  0  0  0  0  0  0  0
    7.5615   -2.1944   -3.3545 F   0  0  0  0  0  0  0  0  0  0  0  0
    7.0271    1.7359   -0.8292 F   0  0  0  0  0  0  0  0  0  0  0  0
   -5.6276    0.5187   -0.5835 H   0  0  0  0  0  0  0  0  0  0  0  0
   -5.5301    1.4202    1.8838 H   0  0  0  0  0  0  0  0  0  0  0  0
   -6.8572    0.2596    1.5687 H   0  0  0  0  0  0  0  0  0  0  0  0
   -5.5427   -0.7170    3.4496 H   0  0  0  0  0  0  0  0  0  0  0  0
   -2.5954   -1.1713    1.1659 H   0  0  0  0  0  0  0  0  0  0  0  0
   -2.0579    1.7334    2.0126 H   0  0  0  0  0  0  0  0  0  0  0  0
   -1.1501    0.3148    2.5273 H   0  0  0  0  0  0  0  0  0  0  0  0
    0.8239    1.1976    1.5835 H   0  0  0  0  0  0  0  0  0  0  0  0
   -6.1511   -2.4787    1.9515 H   0  0  0  0  0  0  0  0  0  0  0  0
   -4.3868   -2.6300    1.8248 H   0  0  0  0  0  0  0  0  0  0  0  0
   -4.6043   -2.0108   -0.4344 H   0  0  0  0  0  0  0  0  0  0  0  0
   -6.3373   -1.7442   -0.1797 H   0  0  0  0  0  0  0  0  0  0  0  0
   -0.5793    1.0946   -3.8099 H   0  0  0  0  0  0  0  0  0  0  0  0
    2.9324   -0.2429    0.6507 H   0  0  0  0  0  0  0  0  0  0  0  0
    5.0561    0.2846    1.5935 H   0  0  0  0  0  0  0  0  0  0  0  0
    5.1225    1.7633    0.6240 H   0  0  0  0  0  0  0  0  0  0  0  0
    5.5469   -3.1157   -1.9833 H   0  0  0  0  0  0  0  0  0  0  0  0
    8.1364    0.2454   -2.6343 H   0  0  0  0  0  0  0  0  0  0  0  0
  1  2  1  0
  2  3  1  0
  3  4  1  0
  4  5  1  0
  5  6  1  0
  1  6  1  0
  8  9  1  0
  9 10  1  0
  7 10  1  0
  5  8  1  0
  7  6  1  0
 12 13  2  0
 13 14  1  0
 11 14  1  0
  9 12  1  0
 11 10  2  0
  3 15  1  0
  1 16  1  0
 16 15  1  0
  7 17  2  0
 14 18  2  0
 11 19  1  0
 13 20  1  0
 20 21  1  0
 20 22  2  0
 21 23  1  0
 23 24  1  0
 25 26  2  0
 27 28  1  0
 28 29  2  0
 25 29  1  0
 26 24  1  0
 24 27  2  0
 26 30  1  0
 29 31  1  0
 27 32  1  0
  1 33  1  6
  2 34  1  0
  2 35  1  0
  3 36  1  1
  5 37  1  6
  8 38  1  0
  8 39  1  0
 12 40  1  0
 15 41  1  0
 15 42  1  0
 16 43  1  0
 16 44  1  0
 19 45  1  0
 21 46  1  0
 23 47  1  0
 23 48  1  0
 25 49  1  0
 28 50  1  0
M  END
$$$$
