
     RDKit          3D

 50 54  0  0  0  0  0  0  0  0999 V2000
   -5.1071   -0.7048   -0.2367 C   0  0  1  0  0  0  0  0  0  0  0  0
   -5.2626    0.4846   -1.1848 C   0  0  0  0  0  0  0  0  0  0  0  0
   -5.2390    1.5996   -0.1461 C   0  0  2  0  0  0  0  0  0  0  0  0
   -3.9097    1.7080    0.4030 O   0  0  0  0  0  0  0  0  0  0  0  0
   -3.4566    0.5370    1.1001 C   0  0  1  0  0  0  0  0  0  0  0  0
   -3.7354   -0.6366    0.2893 N   0  0  0  0  0  0  0  0  0  0  0  0
   -2.7486   -1.2013   -0.5141 C   0  0  0  0  0  0  0  0  0  0  0  0
   -2.0017    0.6798    1.5701 C   0  0  0  0  0  0  0  0  0  0  0  0
   -1.0378    0.3497    0.5117 N   0  0  0  0  0  0  0  0  0  0  0  0
   -1.3409   -0.6418   -0.4299 C   0  0  0  0  0  0  0  0  0  0  0  0
   -0.4332   -1.1080   -1.3219 C   0  0  0  0  0  0  0  0  0  0  0  0
    0.2509    0.8641    0.5572 C   0  0  0  0  0  0  0  0  0  0  0  0
    1.2557    0.5114   -0.2596 C   0  0  0  0  0  0  0  0  0  0  0  0
    0.9565   -0.5301   -1.2771 C   0  0  0  0  0  0  0  0  0  0  0  0
   -6.2635    1.1226    0.8932 C   0  0  0  0  0  0  0  0  0  0  0  0
   -6.1759   -0.4154    0.8317 C   0  0  0  0  0  0  0  0  0  0  0  0
   -3.0018   -2.1050   -1.3161 O   0  0  0  0  0  0  0  0  0  0  0  0
    1.8300   -0.9112   -2.0577 O   0  0  0  0  0  0  0  0  0  0  0  0
   -0.6736   -2.0771   -2.2854 O   0  0  0  0  0  0  0  0  0  0  0  0
    2.5817    1.1664   -0.0771 C   0  0  0  0  0  0  0  0  0  0  0  0
    3.5578    0.7753   -0.9543 N   0  0  0  0  0  0  0  0  0  0  0  0
    2.7665    1.9992    0.8075 O   0  0  0  0  0  0  0  0  0  0  0  0
    4.9165    1.2621   -0.8949 C   0  0  0  0  0  0  0  0  0  0  0  0
    5.8585    0.1870   -0.4431 C   0  0  0  0  0  0  0  0  0  0  0  0
    7.1479   -1.8216   -0.9236 C   0  0  0  0  0  0  0  0  0  0  0  0
    6.2920   -0.8031   -1.3294 C   0  0  0  0  0  0  0  0  0  0  0  0
    6.3083    0.1237    0.8772 C   0  0  0  0  0  0  0  0  0  0  0  0
    7.1654   -0.8861    1.3043 C   0  0  0  0  0  0  0  0  0  0  0  0
    7.5764   -1.8522    0.3959 C   0  0  0  0  0  0  0  0  0  0  0  0
    5.8839   -0.7772   -2.6062 F   0  0  0  0  0  0  0  0  0  0  0  0
    8.4011   -2.8276    0.7992 F   0  0  0  0  0  0  0  0  0  0  0  0
    5.9242    1.0529    1.7627 F   0  0  0  0  0  0  0  0  0  0  0  0
   -5.2845   -1.6625   -0.7355 H   0  0  0  0  0  0  0  0  0  0  0  0
   -4.4421    0.5653   -1.9044 H   0  0  0  0  0  0  0  0  0  0  0  0
   -6.2171    0.4501   -1.7217 H   0  0  0  0  0  0  0  0  0  0  0  0
   -5.5058    2.5712   -0.5710 H   0  0  0  0  0  0  0  0  0  0  0  0
   -4.0407    0.4570    2.0238 H   0  0  0  0  0  0  0  0  0  0  0  0
   -1.8376    1.7015    1.9356 H   0  0  0  0  0  0  0  0  0  0  0  0
   -1.8242   -0.0109    2.4048 H   0  0  0  0  0  0  0  0  0  0  0  0
    0.4034    1.6107    1.3361 H   0  0  0  0  0  0  0  0  0  0  0  0
   -7.2741    1.4372    0.6075 H   0  0  0  0  0  0  0  0  0  0  0  0
   -6.0574    1.5025    1.8985 H   0  0  0  0  0  0  0  0  0  0  0  0
   -7.1457   -0.8164    0.5128 H   0  0  0  0  0  0  0  0  0  0  0  0
   -5.9377   -0.8595    1.8038 H   0  0  0  0  0  0  0  0  0  0  0  0
   -1.6058   -2.3747   -2.1989 H   0  0  0  0  0  0  0  0  0  0  0  0
    3.3319    0.0655   -1.6542 H   0  0  0  0  0  0  0  0  0  0  0  0
    5.1880    1.5947   -1.9038 H   0  0  0  0  0  0  0  0  0  0  0  0
    4.9846    2.1410   -0.2449 H   0  0  0  0  0  0  0  0  0  0  0  0
    7.4720   -2.5810   -1.6266 H   0  0  0  0  0  0  0  0  0  0  0  0
    7.5068   -0.9160    2.3330 H   0  0  0  0  0  0  0  0  0  0  0  0
  1  2  1  0
  2  3  1  0
  3  4  1  0
  4  5  1  0
  5  6  1  0
  1  6  1  0
  8  9  1  0
  9 10  1  0
  7 10  1  0
  5  8  1  0
  7  6  1  0
 12 13  2  0
 13 14  1  0
 11 14  1  0
  9 12  1  0
 11 10  2  0
  3 15  1  0
  1 16  1  0
 16 15  1  0
  7 17  2  0
 14 18  2  0
 11 19  1  0
 13 20  1  0
 20 21  1  0
 20 22  2  0
 21 23  1  0
 23 24  1  0
 25 26  2  0
 27 28  1  0
 28 29  2  0
 25 29  1  0
 26 24  1  0
 24 27  2  0
 26 30  1  0
 29 31  1  0
 27 32  1  0
  1 33  1  6
  2 34  1  0
  2 35  1  0
  3 36  1  6
  5 37  1  1
  8 38  1  0
  8 39  1  0
 12 40  1  0
 15 41  1  0
 15 42  1  0
 16 43  1  0
 16 44  1  0
 19 45  1  0
 21 46  1  0
 23 47  1  0
 23 48  1  0
 25 49  1  0
 28 50  1  0
M  END
$$$$
