
     RDKit          3D

106114  0  0  0  0  0  0  0  0999 V2000
    0.2944   -0.1654    1.0158 C   0  0  2  0  0  0  0  0  0  0  0  0
    1.4133   -0.9268    0.2824 C   0  0  2  0  0  0  0  0  0  0  0  0
   -0.6995   -0.9987    1.8432 C   0  0  1  0  0  0  0  0  0  0  0  0
   -2.0485   -0.5566    1.5663 O   0  0  0  0  0  0  0  0  0  0  0  0
   -0.6600    0.3192   -0.0273 C   0  0  0  0  0  0  0  0  0  0  0  0
    2.0860    0.1523   -0.6673 C   0  0  2  0  0  0  0  0  0  0  0  0
   -1.9655    0.1265    0.3775 C   0  0  0  0  0  0  0  0  0  0  0  0
   -0.3300    0.7759   -1.2916 C   0  0  0  0  0  0  0  0  0  0  0  0
    2.5501    1.3862    0.0320 N   0  0  0  0  0  0  0  0  0  0  0  0
    1.0968    0.6618   -1.7690 C   0  0  0  0  0  0  0  0  0  0  0  0
    0.8476    1.0323    1.8309 C   0  0  0  0  0  0  0  0  0  0  0  0
    0.9314   -2.1870   -0.4951 C   0  0  0  0  0  0  0  0  0  0  0  0
   -0.4990   -2.4808    1.5452 C   0  0  0  0  0  0  0  0  0  0  0  0
   -3.0275    0.5254   -0.4135 C   0  0  0  0  0  0  0  0  0  0  0  0
   -1.3822    1.1830   -2.1106 C   0  0  0  0  0  0  0  0  0  0  0  0
    2.2906    1.4117    1.4700 C   0  0  0  0  0  0  0  0  0  0  0  0
   -2.7178    1.0841   -1.6627 C   0  0  0  0  0  0  0  0  0  0  0  0
   -0.3105   -2.8624    0.0984 C   0  0  0  0  0  0  0  0  0  0  0  0
    2.3952   -1.3999    1.2269 O   0  0  0  0  0  0  0  0  0  0  0  0
   -0.4114   -3.3225    2.4404 O   0  0  0  0  0  0  0  0  0  0  0  0
    3.9580    1.6641   -0.2434 C   0  0  0  0  0  0  0  0  0  0  0  0
   -4.2789    0.2975    0.0796 O   0  0  0  0  0  0  0  0  0  0  0  0
   -5.3710    0.7556   -0.7061 C   0  0  0  0  0  0  0  0  0  0  0  0
   -0.3259    0.6207    1.0092 C   0  0  2  0  0  0  0  0  0  0  0  0
   -1.5449    0.9014    0.1231 C   0  0  2  0  0  0  0  0  0  0  0  0
    0.6069    1.7937    1.3525 C   0  0  1  0  0  0  0  0  0  0  0  0
    1.9487    1.2405    1.5081 O   0  0  0  0  0  0  0  0  0  0  0  0
    0.6835   -0.1601    0.2234 C   0  0  0  0  0  0  0  0  0  0  0  0
   -2.0470   -0.5133   -0.3550 C   0  0  2  0  0  0  0  0  0  0  0  0
    1.9641    0.1940    0.6100 C   0  0  0  0  0  0  0  0  0  0  0  0
    0.4223   -1.0655   -0.7883 C   0  0  0  0  0  0  0  0  0  0  0  0
   -2.2920   -1.4815    0.7487 N   0  0  0  0  0  0  0  0  0  0  0  0
   -0.9966   -1.2174   -1.2812 C   0  0  0  0  0  0  0  0  0  0  0  0
   -0.7118   -0.2103    2.2639 C   0  0  0  0  0  0  0  0  0  0  0  0
   -1.2004    1.8543   -1.0398 C   0  0  0  0  0  0  0  0  0  0  0  0
    0.6301    2.9207    0.3001 C   0  0  0  0  0  0  0  0  0  0  0  0
    3.0719   -0.4371    0.0772 C   0  0  0  0  0  0  0  0  0  0  0  0
    1.5245   -1.6993   -1.3594 C   0  0  0  0  0  0  0  0  0  0  0  0
   -1.9951   -1.0478    2.1062 C   0  0  0  0  0  0  0  0  0  0  0  0
    2.8361   -1.3997   -0.9188 C   0  0  0  0  0  0  0  0  0  0  0  0
   -0.6265    3.1630   -0.5063 C   0  0  0  0  0  0  0  0  0  0  0  0
   -2.5928    1.6012    0.8176 O   0  0  0  0  0  0  0  0  0  0  0  0
    1.5906    3.6841    0.1771 O   0  0  0  0  0  0  0  0  0  0  0  0
   -3.6039   -2.1143    0.6507 C   0  0  0  0  0  0  0  0  0  0  0  0
    4.2896   -0.0475    0.5506 O   0  0  0  0  0  0  0  0  0  0  0  0
    5.4196   -0.7819    0.1062 C   0  0  0  0  0  0  0  0  0  0  0  0
   -2.8102   -0.5270   -0.4009 C   0  0  0  0  0  0  0  0  0  0  0  0
    2.8077    0.5381    0.4054 C   0  0  0  0  0  0  0  0  0  0  0  0
    1.3658    0.2740    0.1759 C   0  0  0  0  0  0  0  0  0  0  0  0
   -1.3699   -0.2598   -0.1715 C   0  0  0  0  0  0  0  0  0  0  0  0
    3.4039    0.3729    1.4533 O   0  0  0  0  0  0  0  0  0  0  0  0
   -3.4192   -0.3108   -1.4319 O   0  0  0  0  0  0  0  0  0  0  0  0
   -0.7560   -0.5100    1.0617 C   0  0  0  0  0  0  0  0  0  0  0  0
    0.6072   -0.2440    1.2345 C   0  0  0  0  0  0  0  0  0  0  0  0
   -0.6103    0.2551   -1.2310 C   0  0  0  0  0  0  0  0  0  0  0  0
    0.7517    0.5276   -1.0568 C   0  0  0  0  0  0  0  0  0  0  0  0
   -3.4192   -1.0581    0.6736 O   0  0  0  0  0  0  0  0  0  0  0  0
    3.4356    0.9874   -0.6958 O   0  0  0  0  0  0  0  0  0  0  0  0
   -0.5308   -0.8738    2.9195 H   0  0  0  0  0  0  0  0  0  0  0  0
    2.9422   -0.3286   -1.1597 H   0  0  0  0  0  0  0  0  0  0  0  0
    1.1168   -0.0527   -2.6026 H   0  0  0  0  0  0  0  0  0  0  0  0
    1.4274    1.6244   -2.1797 H   0  0  0  0  0  0  0  0  0  0  0  0
    0.8471    0.7999    2.9050 H   0  0  0  0  0  0  0  0  0  0  0  0
    0.2065    1.9165    1.7104 H   0  0  0  0  0  0  0  0  0  0  0  0
    0.7146   -1.9696   -1.5482 H   0  0  0  0  0  0  0  0  0  0  0  0
    1.7494   -2.9234   -0.5146 H   0  0  0  0  0  0  0  0  0  0  0  0
   -1.1852    1.5655   -3.1099 H   0  0  0  0  0  0  0  0  0  0  0  0
    2.9923    0.7632    2.0119 H   0  0  0  0  0  0  0  0  0  0  0  0
    2.4732    2.4257    1.8527 H   0  0  0  0  0  0  0  0  0  0  0  0
   -3.4976    1.4168   -2.3402 H   0  0  0  0  0  0  0  0  0  0  0  0
   -1.2130   -2.5737   -0.4511 H   0  0  0  0  0  0  0  0  0  0  0  0
   -0.2253   -3.9516    0.0115 H   0  0  0  0  0  0  0  0  0  0  0  0
    2.0488   -2.1632    1.7290 H   0  0  0  0  0  0  0  0  0  0  0  0
    4.2572    2.6182    0.2017 H   0  0  0  0  0  0  0  0  0  0  0  0
    4.6154    0.8811    0.1470 H   0  0  0  0  0  0  0  0  0  0  0  0
    4.1284    1.7525   -1.3219 H   0  0  0  0  0  0  0  0  0  0  0  0
   -5.3967    0.2489   -1.6764 H   0  0  0  0  0  0  0  0  0  0  0  0
   -5.3362    1.8434   -0.8292 H   0  0  0  0  0  0  0  0  0  0  0  0
   -6.2962    0.5051   -0.1772 H   0  0  0  0  0  0  0  0  0  0  0  0
    0.3212    2.2649    2.3005 H   0  0  0  0  0  0  0  0  0  0  0  0
   -2.9751   -0.3655   -0.9248 H   0  0  0  0  0  0  0  0  0  0  0  0
   -1.2379   -2.2823   -1.4019 H   0  0  0  0  0  0  0  0  0  0  0  0
   -1.0567   -0.7682   -2.2804 H   0  0  0  0  0  0  0  0  0  0  0  0
   -0.8698    0.4654    3.1165 H   0  0  0  0  0  0  0  0  0  0  0  0
    0.1092   -0.8799    2.5593 H   0  0  0  0  0  0  0  0  0  0  0  0
   -2.1085    2.0805   -1.6131 H   0  0  0  0  0  0  0  0  0  0  0  0
   -0.4856    1.4169   -1.7431 H   0  0  0  0  0  0  0  0  0  0  0  0
    1.3857   -2.4131   -2.1682 H   0  0  0  0  0  0  0  0  0  0  0  0
   -1.8959   -1.9340    2.7509 H   0  0  0  0  0  0  0  0  0  0  0  0
   -2.8430   -0.4875    2.5227 H   0  0  0  0  0  0  0  0  0  0  0  0
    3.6565   -1.9217   -1.4024 H   0  0  0  0  0  0  0  0  0  0  0  0
   -0.3759    3.8156   -1.3503 H   0  0  0  0  0  0  0  0  0  0  0  0
   -1.3460    3.7015    0.1208 H   0  0  0  0  0  0  0  0  0  0  0  0
   -2.6818    1.2759    1.7298 H   0  0  0  0  0  0  0  0  0  0  0  0
   -4.4137   -1.3930    0.8112 H   0  0  0  0  0  0  0  0  0  0  0  0
   -3.7360   -2.5761   -0.3345 H   0  0  0  0  0  0  0  0  0  0  0  0
   -3.7029   -2.9178    1.3893 H   0  0  0  0  0  0  0  0  0  0  0  0
    5.5816   -0.6417   -0.9664 H   0  0  0  0  0  0  0  0  0  0  0  0
    5.3233   -1.8423    0.3548 H   0  0  0  0  0  0  0  0  0  0  0  0
    6.3004   -0.3958    0.6273 H   0  0  0  0  0  0  0  0  0  0  0  0
   -1.3257   -0.9137    1.8953 H   0  0  0  0  0  0  0  0  0  0  0  0
    1.0752   -0.4455    2.1974 H   0  0  0  0  0  0  0  0  0  0  0  0
   -1.0764    0.4515   -2.1956 H   0  0  0  0  0  0  0  0  0  0  0  0
    1.3241    0.9277   -1.8913 H   0  0  0  0  0  0  0  0  0  0  0  0
   -4.3473   -1.1771    0.3822 H   0  0  0  0  0  0  0  0  0  0  0  0
    4.3630    1.1116   -0.4046 H   0  0  0  0  0  0  0  0  0  0  0  0
 14  7  2  0
 15  8  1  0
 16 11  1  0
 17 15  2  0
 18 13  1  0
  2 19  1  1
 20 13  2  0
 21  9  1  0
  4  7  1  0
 16  9  1  0
  6 10  1  0
 18 12  1  0
 17 14  1  0
 14 22  1  0
 22 23  1  0
  2  1  1  0
  3  1  1  0
  3  4  1  0
  5  1  1  0
  6  2  1  0
  7  5  1  0
  8  5  2  0
  6  9  1  0
 10  8  1  0
  1 11  1  1
 12  2  1  0
 13  3  1  0
 37 30  2  0
 38 31  1  0
 39 34  1  0
 40 38  2  0
 41 36  1  0
 25 42  1  1
 43 36  2  0
 44 32  1  0
 27 30  1  0
 39 32  1  0
 29 33  1  0
 41 35  1  0
 40 37  1  0
 37 45  1  0
 45 46  1  0
 25 24  1  0
 26 24  1  0
 26 27  1  0
 28 24  1  0
 29 25  1  0
 30 28  1  0
 31 28  2  0
 29 32  1  0
 33 31  1  0
 24 34  1  1
 35 25  1  0
 36 26  1  0
 48 49  1  0
 49 56  2  0
 50 47  1  0
 51 48  2  0
 52 47  2  0
 53 50  1  0
 54 53  2  0
 55 50  2  0
 56 55  1  0
 57 47  1  0
 58 48  1  0
 49 54  1  0
  3 59  1  1
  6 60  1  6
 10 61  1  0
 10 62  1  0
 11 63  1  0
 11 64  1  0
 12 65  1  0
 12 66  1  0
 15 67  1  0
 16 68  1  0
 16 69  1  0
 17 70  1  0
 18 71  1  0
 18 72  1  0
 19 73  1  0
 21 74  1  0
 21 75  1  0
 21 76  1  0
 23 77  1  0
 23 78  1  0
 23 79  1  0
 26 80  1  1
 29 81  1  6
 33 82  1  0
 33 83  1  0
 34 84  1  0
 34 85  1  0
 35 86  1  0
 35 87  1  0
 38 88  1  0
 39 89  1  0
 39 90  1  0
 40 91  1  0
 41 92  1  0
 41 93  1  0
 42 94  1  0
 44 95  1  0
 44 96  1  0
 44 97  1  0
 46 98  1  0
 46 99  1  0
 46100  1  0
 53101  1  0
 54102  1  0
 55103  1  0
 56104  1  0
 57105  1  0
 58106  1  0
M  END
$$$$
