
     RDKit          3D

 73 75  0  0  1  0  0  0  0  0999 V2000
    0.7044    0.0385   -0.4038 C   0  0  1  0  0  0  0  0  0  0  0  0
   -0.4761    1.0204   -0.1396 C   0  0  2  0  0  0  0  0  0  0  0  0
   -5.2815   -0.4214    0.0011 C   0  0  0  0  0  0  0  0  0  0  0  0
    1.7112    1.0228   -1.0783 C   0  0  2  0  0  0  0  0  0  0  0  0
   -4.0764   -0.2795    0.5916 C   0  0  0  0  0  0  0  0  0  0  0  0
   -5.6122   -0.0328   -1.3653 C   0  0  0  0  0  0  0  0  0  0  0  0
   -1.6525    0.3448    0.5384 C   0  0  0  0  0  0  0  0  0  0  0  0
   -2.8905    0.3162    0.0070 C   0  0  0  0  0  0  0  0  0  0  0  0
    3.9261   -0.2045   -0.8529 C   0  0  0  0  0  0  0  0  0  0  0  0
    5.0392    0.3206   -0.3128 C   0  0  0  0  0  0  0  0  0  0  0  0
   -0.6256    1.7547   -1.4712 C   0  0  0  0  0  0  0  0  0  0  0  0
    0.8157    1.9260   -1.9704 C   0  0  0  0  0  0  0  0  0  0  0  0
   -6.4611   -0.9725    0.7823 C   0  0  0  0  0  0  0  0  0  0  0  0
    3.0073    0.5472   -1.7901 C   0  0  1  0  0  0  0  0  0  0  0  0
   -6.7722    0.9234   -1.5222 C   0  0  0  0  0  0  0  0  0  0  0  0
   -4.9961   -0.5706   -2.4302 C   0  0  0  0  0  0  0  0  0  0  0  0
    6.0210   -0.3597    0.6268 C   0  0  1  0  0  0  0  0  0  0  0  0
    1.1548   -0.5181    0.9657 C   0  0  0  0  0  0  0  0  0  0  0  0
    0.3015   -1.1281   -1.3316 C   0  0  0  0  0  0  0  0  0  0  0  0
   -7.8170   -0.3558    0.3845 C   0  0  2  0  0  0  0  0  0  0  0  0
   -7.6569    1.0121   -0.2765 C   0  0  0  0  0  0  0  0  0  0  0  0
    6.0972    0.4103    1.9779 C   0  0  0  0  0  0  0  0  0  0  0  0
   -1.2362   -0.2663    1.8660 C   0  0  0  0  0  0  0  0  0  0  0  0
   -8.6567   -0.2287    1.5327 O   0  0  0  0  0  0  0  0  0  0  0  0
   -0.0034   -1.1715    1.7364 C   0  0  0  0  0  0  0  0  0  0  0  0
    2.8481   -0.2657   -3.0791 C   0  0  0  0  0  0  0  0  0  0  0  0
    5.7908   -1.8682    0.7978 C   0  0  0  0  0  0  0  0  0  0  0  0
    4.7976    0.3596    2.7890 C   0  0  0  0  0  0  0  0  0  0  0  0
    7.2649   -0.0672    2.8478 C   0  0  0  0  0  0  0  0  0  0  0  0
   -0.1376    1.7865    0.5788 H   0  0  0  0  0  0  0  0  0  0  0  0
    2.0673    1.6836   -0.2696 H   0  0  0  0  0  0  0  0  0  0  0  0
   -3.9855   -0.6169    1.6206 H   0  0  0  0  0  0  0  0  0  0  0  0
   -3.0506    0.7998   -0.9537 H   0  0  0  0  0  0  0  0  0  0  0  0
    3.6474   -1.2319   -0.6341 H   0  0  0  0  0  0  0  0  0  0  0  0
    5.2947    1.3513   -0.5606 H   0  0  0  0  0  0  0  0  0  0  0  0
   -1.1272    2.7208   -1.3534 H   0  0  0  0  0  0  0  0  0  0  0  0
   -1.1979    1.1722   -2.2017 H   0  0  0  0  0  0  0  0  0  0  0  0
    0.8611    1.6744   -3.0325 H   0  0  0  0  0  0  0  0  0  0  0  0
    1.1343    2.9708   -1.8767 H   0  0  0  0  0  0  0  0  0  0  0  0
   -6.2983   -0.8344    1.8595 H   0  0  0  0  0  0  0  0  0  0  0  0
   -6.5146   -2.0585    0.6276 H   0  0  0  0  0  0  0  0  0  0  0  0
    3.5231    1.4696   -2.0973 H   0  0  0  0  0  0  0  0  0  0  0  0
   -6.3949    1.9246   -1.7631 H   0  0  0  0  0  0  0  0  0  0  0  0
   -7.3941    0.6019   -2.3679 H   0  0  0  0  0  0  0  0  0  0  0  0
   -5.2794   -0.3007   -3.4425 H   0  0  0  0  0  0  0  0  0  0  0  0
   -4.1950   -1.2960   -2.3190 H   0  0  0  0  0  0  0  0  0  0  0  0
    7.0027   -0.2564    0.1418 H   0  0  0  0  0  0  0  0  0  0  0  0
    1.9523   -1.2582    0.8493 H   0  0  0  0  0  0  0  0  0  0  0  0
    1.5661    0.2927    1.5803 H   0  0  0  0  0  0  0  0  0  0  0  0
   -0.6097   -1.6333   -0.9967 H   0  0  0  0  0  0  0  0  0  0  0  0
    0.1166   -0.7991   -2.3587 H   0  0  0  0  0  0  0  0  0  0  0  0
    1.0859   -1.8911   -1.3575 H   0  0  0  0  0  0  0  0  0  0  0  0
   -8.3304   -1.0333   -0.3087 H   0  0  0  0  0  0  0  0  0  0  0  0
   -8.6380    1.4274   -0.5379 H   0  0  0  0  0  0  0  0  0  0  0  0
   -7.2233    1.7213    0.4420 H   0  0  0  0  0  0  0  0  0  0  0  0
    6.2918    1.4673    1.7474 H   0  0  0  0  0  0  0  0  0  0  0  0
   -1.0057    0.5515    2.5610 H   0  0  0  0  0  0  0  0  0  0  0  0
   -2.0339   -0.8492    2.3332 H   0  0  0  0  0  0  0  0  0  0  0  0
   -8.2436    0.4161    2.1329 H   0  0  0  0  0  0  0  0  0  0  0  0
    0.3456   -1.4476    2.7389 H   0  0  0  0  0  0  0  0  0  0  0  0
   -0.2908   -2.1089    1.2449 H   0  0  0  0  0  0  0  0  0  0  0  0
    2.1716    0.2104   -3.7923 H   0  0  0  0  0  0  0  0  0  0  0  0
    3.8186   -0.3607   -3.5825 H   0  0  0  0  0  0  0  0  0  0  0  0
    2.4953   -1.2838   -2.8984 H   0  0  0  0  0  0  0  0  0  0  0  0
    5.7875   -2.3738   -0.1751 H   0  0  0  0  0  0  0  0  0  0  0  0
    6.5908   -2.3280    1.3861 H   0  0  0  0  0  0  0  0  0  0  0  0
    4.8393   -2.0879    1.2928 H   0  0  0  0  0  0  0  0  0  0  0  0
    4.5475   -0.6609    3.0951 H   0  0  0  0  0  0  0  0  0  0  0  0
    3.9552    0.7639    2.2198 H   0  0  0  0  0  0  0  0  0  0  0  0
    4.8922    0.9622    3.6992 H   0  0  0  0  0  0  0  0  0  0  0  0
    8.2026   -0.0580    2.2825 H   0  0  0  0  0  0  0  0  0  0  0  0
    7.3928    0.5935    3.7123 H   0  0  0  0  0  0  0  0  0  0  0  0
    7.1025   -1.0794    3.2305 H   0  0  0  0  0  0  0  0  0  0  0  0
  2  1  1  0
  3  5  2  0
  4  1  1  0
  5  8  1  0
  6  3  1  0
  7  2  1  0
  8  7  2  0
  9 14  1  0
 10  9  2  0
  2 11  1  0
  4 12  1  0
 13  3  1  0
 14  4  1  0
 15  6  1  0
 16  6  2  0
 17 10  1  0
 18  1  1  0
  1 19  1  6
 20 13  1  0
 21 20  1  0
 22 17  1  0
 23  7  1  0
 20 24  1  0
 25 18  1  0
 14 26  1  0
 17 27  1  0
 28 22  1  0
 29 22  1  0
 23 25  1  0
 12 11  1  0
 15 21  1  0
  2 30  1  1
  4 31  1  1
  5 32  1  0
  8 33  1  0
  9 34  1  0
 10 35  1  0
 11 36  1  0
 11 37  1  0
 12 38  1  0
 12 39  1  0
 13 40  1  0
 13 41  1  0
 14 42  1  6
 15 43  1  0
 15 44  1  0
 16 45  1  0
 16 46  1  0
 17 47  1  6
 18 48  1  0
 18 49  1  0
 19 50  1  0
 19 51  1  0
 19 52  1  0
 20 53  1  6
 21 54  1  0
 21 55  1  0
 22 56  1  0
 23 57  1  0
 23 58  1  0
 24 59  1  0
 25 60  1  0
 25 61  1  0
 26 62  1  0
 26 63  1  0
 26 64  1  0
 27 65  1  0
 27 66  1  0
 27 67  1  0
 28 68  1  0
 28 69  1  0
 28 70  1  0
 29 71  1  0
 29 72  1  0
 29 73  1  0
M  END
$$$$
