
     RDKit          3D

 73 75  0  0  1  0  0  0  0  0999 V2000
   -0.2021    0.9795   -0.4034 C   0  0  1  0  0  0  0  0  0  0  0  0
    0.7317    0.6626    0.8005 C   0  0  2  0  0  0  0  0  0  0  0  0
    5.6869   -0.0856    0.5159 C   0  0  0  0  0  0  0  0  0  0  0  0
   -1.5360    0.3644    0.1242 C   0  0  2  0  0  0  0  0  0  0  0  0
    4.6098    0.7184    0.4020 C   0  0  0  0  0  0  0  0  0  0  0  0
    5.6809   -1.4902    0.9211 C   0  0  0  0  0  0  0  0  0  0  0  0
    2.1489    1.1555    0.5770 C   0  0  0  0  0  0  0  0  0  0  0  0
    3.2241    0.3437    0.6090 C   0  0  0  0  0  0  0  0  0  0  0  0
   -3.8628   -0.5698   -0.1521 C   0  0  0  0  0  0  0  0  0  0  0  0
   -4.9622    0.0228    0.3460 C   0  0  0  0  0  0  0  0  0  0  0  0
    0.4303   -0.8026    1.1062 C   0  0  0  0  0  0  0  0  0  0  0  0
   -1.0716   -0.9430    0.8318 C   0  0  0  0  0  0  0  0  0  0  0  0
    7.0744    0.4132    0.1678 C   0  0  0  0  0  0  0  0  0  0  0  0
   -2.7042    0.1127   -0.8688 C   0  0  1  0  0  0  0  0  0  0  0  0
    6.3540   -2.4304   -0.0510 C   0  0  0  0  0  0  0  0  0  0  0  0
    5.1905   -1.9032    2.1001 C   0  0  0  0  0  0  0  0  0  0  0  0
   -6.1222   -0.6433    1.0649 C   0  0  1  0  0  0  0  0  0  0  0  0
   -0.2157    2.5137   -0.5859 C   0  0  0  0  0  0  0  0  0  0  0  0
    0.2573    0.2928   -1.7128 C   0  0  0  0  0  0  0  0  0  0  0  0
    7.7538   -0.4940   -0.8682 C   0  0  2  0  0  0  0  0  0  0  0  0
    7.7621   -1.9516   -0.4031 C   0  0  0  0  0  0  0  0  0  0  0  0
   -7.4593   -0.5553    0.2712 C   0  0  0  0  0  0  0  0  0  0  0  0
    2.1688    2.6570    0.3489 C   0  0  0  0  0  0  0  0  0  0  0  0
    9.1022   -0.0786   -1.0791 O   0  0  0  0  0  0  0  0  0  0  0  0
    1.1984    3.0923   -0.7564 C   0  0  0  0  0  0  0  0  0  0  0  0
   -3.1503    1.3745   -1.6155 C   0  0  0  0  0  0  0  0  0  0  0  0
   -5.8461   -2.0856    1.5168 C   0  0  0  0  0  0  0  0  0  0  0  0
   -7.4078   -1.2413   -1.0985 C   0  0  0  0  0  0  0  0  0  0  0  0
   -7.9332    0.8937    0.1012 C   0  0  0  0  0  0  0  0  0  0  0  0
    0.3682    1.2241    1.6782 H   0  0  0  0  0  0  0  0  0  0  0  0
   -1.9178    1.0319    0.9129 H   0  0  0  0  0  0  0  0  0  0  0  0
    4.7874    1.7443    0.0922 H   0  0  0  0  0  0  0  0  0  0  0  0
    3.0635   -0.7150    0.7961 H   0  0  0  0  0  0  0  0  0  0  0  0
   -3.7531   -1.6486   -0.0584 H   0  0  0  0  0  0  0  0  0  0  0  0
   -5.0531    1.1043    0.2610 H   0  0  0  0  0  0  0  0  0  0  0  0
    0.6760   -1.0637    2.1409 H   0  0  0  0  0  0  0  0  0  0  0  0
    0.9847   -1.4863    0.4538 H   0  0  0  0  0  0  0  0  0  0  0  0
   -1.6237   -1.0835    1.7683 H   0  0  0  0  0  0  0  0  0  0  0  0
   -1.2444   -1.8307    0.2124 H   0  0  0  0  0  0  0  0  0  0  0  0
    7.6865    0.4615    1.0789 H   0  0  0  0  0  0  0  0  0  0  0  0
    7.0516    1.4400   -0.2188 H   0  0  0  0  0  0  0  0  0  0  0  0
   -2.3718   -0.5990   -1.6366 H   0  0  0  0  0  0  0  0  0  0  0  0
    5.7470   -2.4937   -0.9636 H   0  0  0  0  0  0  0  0  0  0  0  0
    6.4131   -3.4468    0.3566 H   0  0  0  0  0  0  0  0  0  0  0  0
    4.7490   -1.2075    2.8079 H   0  0  0  0  0  0  0  0  0  0  0  0
    5.2257   -2.9472    2.3941 H   0  0  0  0  0  0  0  0  0  0  0  0
   -6.2613   -0.0703    1.9933 H   0  0  0  0  0  0  0  0  0  0  0  0
   -0.6839    2.9872    0.2869 H   0  0  0  0  0  0  0  0  0  0  0  0
   -0.8110    2.8079   -1.4543 H   0  0  0  0  0  0  0  0  0  0  0  0
    1.2951    0.5302   -1.9656 H   0  0  0  0  0  0  0  0  0  0  0  0
   -0.3574    0.6116   -2.5606 H   0  0  0  0  0  0  0  0  0  0  0  0
    0.1865   -0.7982   -1.6576 H   0  0  0  0  0  0  0  0  0  0  0  0
    7.2304   -0.4226   -1.8298 H   0  0  0  0  0  0  0  0  0  0  0  0
    8.4251   -2.0585    0.4661 H   0  0  0  0  0  0  0  0  0  0  0  0
    8.1930   -2.5888   -1.1848 H   0  0  0  0  0  0  0  0  0  0  0  0
   -8.2290   -1.0682    0.8643 H   0  0  0  0  0  0  0  0  0  0  0  0
    1.8814    3.1485    1.2877 H   0  0  0  0  0  0  0  0  0  0  0  0
    3.1624    3.0382    0.1010 H   0  0  0  0  0  0  0  0  0  0  0  0
    9.0778    0.8333   -1.4167 H   0  0  0  0  0  0  0  0  0  0  0  0
    1.6028    2.7972   -1.7321 H   0  0  0  0  0  0  0  0  0  0  0  0
    1.1373    4.1871   -0.7698 H   0  0  0  0  0  0  0  0  0  0  0  0
   -4.0888    1.2061   -2.1566 H   0  0  0  0  0  0  0  0  0  0  0  0
   -3.2964    2.2197   -0.9345 H   0  0  0  0  0  0  0  0  0  0  0  0
   -2.4146    1.6659   -2.3692 H   0  0  0  0  0  0  0  0  0  0  0  0
   -6.6896   -2.4741    2.0980 H   0  0  0  0  0  0  0  0  0  0  0  0
   -5.6828   -2.7642    0.6740 H   0  0  0  0  0  0  0  0  0  0  0  0
   -4.9602   -2.1290    2.1606 H   0  0  0  0  0  0  0  0  0  0  0  0
   -8.3863   -1.1890   -1.5887 H   0  0  0  0  0  0  0  0  0  0  0  0
   -7.1486   -2.2999   -1.0075 H   0  0  0  0  0  0  0  0  0  0  0  0
   -6.6803   -0.7661   -1.7644 H   0  0  0  0  0  0  0  0  0  0  0  0
   -7.9758    1.4063    1.0679 H   0  0  0  0  0  0  0  0  0  0  0  0
   -8.9397    0.9189   -0.3311 H   0  0  0  0  0  0  0  0  0  0  0  0
   -7.2755    1.4644   -0.5622 H   0  0  0  0  0  0  0  0  0  0  0  0
  2  1  1  0
  3  5  2  0
  4  1  1  0
  5  8  1  0
  6  3  1  0
  7  2  1  0
  8  7  2  0
  9 14  1  0
 10  9  2  0
  2 11  1  0
  4 12  1  0
 13  3  1  0
 14  4  1  0
 15  6  1  0
 16  6  2  0
 17 10  1  0
 18  1  1  0
  1 19  1  6
 20 13  1  0
 21 20  1  0
 22 17  1  0
 23  7  1  0
 20 24  1  0
 25 18  1  0
 14 26  1  0
 17 27  1  0
 28 22  1  0
 29 22  1  0
 23 25  1  0
 12 11  1  0
 15 21  1  0
  2 30  1  1
  4 31  1  1
  5 32  1  0
  8 33  1  0
  9 34  1  0
 10 35  1  0
 11 36  1  0
 11 37  1  0
 12 38  1  0
 12 39  1  0
 13 40  1  0
 13 41  1  0
 14 42  1  6
 15 43  1  0
 15 44  1  0
 16 45  1  0
 16 46  1  0
 17 47  1  1
 18 48  1  0
 18 49  1  0
 19 50  1  0
 19 51  1  0
 19 52  1  0
 20 53  1  6
 21 54  1  0
 21 55  1  0
 22 56  1  0
 23 57  1  0
 23 58  1  0
 24 59  1  0
 25 60  1  0
 25 61  1  0
 26 62  1  0
 26 63  1  0
 26 64  1  0
 27 65  1  0
 27 66  1  0
 27 67  1  0
 28 68  1  0
 28 69  1  0
 28 70  1  0
 29 71  1  0
 29 72  1  0
 29 73  1  0
M  END
$$$$
