
     RDKit          3D

 73 75  0  0  1  0  0  0  0  0999 V2000
    0.2056   -1.2407    0.3263 C   0  0  1  0  0  0  0  0  0  0  0  0
   -0.7013   -0.0094    0.6145 C   0  0  2  0  0  0  0  0  0  0  0  0
   -5.6393    0.0385   -0.2855 C   0  0  0  0  0  0  0  0  0  0  0  0
    1.5560   -0.5157    0.0295 C   0  0  2  0  0  0  0  0  0  0  0  0
   -4.5884   -0.2830    0.4975 C   0  0  0  0  0  0  0  0  0  0  0  0
   -5.5658    0.7225   -1.5716 C   0  0  0  0  0  0  0  0  0  0  0  0
   -2.1276   -0.4059    0.9456 C   0  0  0  0  0  0  0  0  0  0  0  0
   -3.1936    0.0192    0.2392 C   0  0  0  0  0  0  0  0  0  0  0  0
    3.8874   -0.3714   -0.9202 C   0  0  0  0  0  0  0  0  0  0  0  0
    5.0202   -0.2829   -0.2020 C   0  0  0  0  0  0  0  0  0  0  0  0
   -0.3803    0.9432   -0.5345 C   0  0  0  0  0  0  0  0  0  0  0  0
    1.1174    0.7356   -0.7878 C   0  0  0  0  0  0  0  0  0  0  0  0
   -7.0582   -0.2509    0.1701 C   0  0  0  0  0  0  0  0  0  0  0  0
    2.7062   -1.2982   -0.6642 C   0  0  1  0  0  0  0  0  0  0  0  0
   -6.3653    1.9994   -1.6903 C   0  0  0  0  0  0  0  0  0  0  0  0
   -4.9156    0.1981   -2.6224 C   0  0  0  0  0  0  0  0  0  0  0  0
    6.1514    0.6698   -0.5313 C   0  0  1  0  0  0  0  0  0  0  0  0
    0.2013   -2.1220    1.5952 C   0  0  0  0  0  0  0  0  0  0  0  0
   -0.2746   -2.0621   -0.8954 C   0  0  0  0  0  0  0  0  0  0  0  0
   -8.0856    0.8066   -0.2807 C   0  0  2  0  0  0  0  0  0  0  0  0
   -7.4305    2.1490   -0.6014 C   0  0  0  0  0  0  0  0  0  0  0  0
    6.2691    1.7957    0.5336 C   0  0  0  0  0  0  0  0  0  0  0  0
   -2.1698   -1.3174    2.1599 C   0  0  0  0  0  0  0  0  0  0  0  0
   -9.0754    0.9955    0.7314 O   0  0  0  0  0  0  0  0  0  0  0  0
   -1.2209   -2.5153    2.0257 C   0  0  0  0  0  0  0  0  0  0  0  0
    3.1179   -2.5661    0.0919 C   0  0  0  0  0  0  0  0  0  0  0  0
    7.4399   -0.1332   -0.7380 C   0  0  0  0  0  0  0  0  0  0  0  0
    6.7043    1.3091    1.9203 C   0  0  0  0  0  0  0  0  0  0  0  0
    7.2108    2.9120    0.0675 C   0  0  0  0  0  0  0  0  0  0  0  0
   -0.3258    0.4925    1.5226 H   0  0  0  0  0  0  0  0  0  0  0  0
    1.9485   -0.1443    0.9894 H   0  0  0  0  0  0  0  0  0  0  0  0
   -4.8038   -0.7932    1.4326 H   0  0  0  0  0  0  0  0  0  0  0  0
   -3.0214    0.6767   -0.6096 H   0  0  0  0  0  0  0  0  0  0  0  0
    3.7744    0.2819   -1.7854 H   0  0  0  0  0  0  0  0  0  0  0  0
    5.1595   -0.9157    0.6713 H   0  0  0  0  0  0  0  0  0  0  0  0
   -0.9402    0.7010   -1.4447 H   0  0  0  0  0  0  0  0  0  0  0  0
   -0.6041    1.9841   -0.2782 H   0  0  0  0  0  0  0  0  0  0  0  0
    1.2873    0.6060   -1.8628 H   0  0  0  0  0  0  0  0  0  0  0  0
    1.6883    1.6153   -0.4689 H   0  0  0  0  0  0  0  0  0  0  0  0
   -7.3673   -1.2269   -0.2268 H   0  0  0  0  0  0  0  0  0  0  0  0
   -7.0917   -0.3518    1.2631 H   0  0  0  0  0  0  0  0  0  0  0  0
    2.3664   -1.6251   -1.6561 H   0  0  0  0  0  0  0  0  0  0  0  0
   -6.8616    2.0260   -2.6692 H   0  0  0  0  0  0  0  0  0  0  0  0
   -5.6898    2.8625   -1.6484 H   0  0  0  0  0  0  0  0  0  0  0  0
   -4.9018    0.6980   -3.5854 H   0  0  0  0  0  0  0  0  0  0  0  0
   -4.3825   -0.7456   -2.5492 H   0  0  0  0  0  0  0  0  0  0  0  0
    5.9243    1.1544   -1.4915 H   0  0  0  0  0  0  0  0  0  0  0  0
    0.7778   -3.0390    1.4473 H   0  0  0  0  0  0  0  0  0  0  0  0
    0.6807   -1.5838    2.4231 H   0  0  0  0  0  0  0  0  0  0  0  0
   -1.3194   -2.3739   -0.8031 H   0  0  0  0  0  0  0  0  0  0  0  0
   -0.1934   -1.5010   -1.8318 H   0  0  0  0  0  0  0  0  0  0  0  0
    0.3196   -2.9734   -1.0152 H   0  0  0  0  0  0  0  0  0  0  0  0
   -8.6106    0.4403   -1.1711 H   0  0  0  0  0  0  0  0  0  0  0  0
   -8.1878    2.8795   -0.9106 H   0  0  0  0  0  0  0  0  0  0  0  0
   -6.9794    2.5665    0.3091 H   0  0  0  0  0  0  0  0  0  0  0  0
    5.2743    2.2492    0.6470 H   0  0  0  0  0  0  0  0  0  0  0  0
   -1.8795   -0.7289    3.0400 H   0  0  0  0  0  0  0  0  0  0  0  0
   -3.1714   -1.7029    2.3666 H   0  0  0  0  0  0  0  0  0  0  0  0
   -8.6338    1.3740    1.5116 H   0  0  0  0  0  0  0  0  0  0  0  0
   -1.1708   -3.0426    2.9860 H   0  0  0  0  0  0  0  0  0  0  0  0
   -1.6386   -3.2307    1.3069 H   0  0  0  0  0  0  0  0  0  0  0  0
    4.0398   -2.9936   -0.3195 H   0  0  0  0  0  0  0  0  0  0  0  0
    3.2788   -2.3694    1.1573 H   0  0  0  0  0  0  0  0  0  0  0  0
    2.3572   -3.3449   -0.0016 H   0  0  0  0  0  0  0  0  0  0  0  0
    7.7333   -0.6801    0.1643 H   0  0  0  0  0  0  0  0  0  0  0  0
    8.2717    0.5148   -1.0298 H   0  0  0  0  0  0  0  0  0  0  0  0
    7.3094   -0.8712   -1.5383 H   0  0  0  0  0  0  0  0  0  0  0  0
    7.7175    0.8950    1.9055 H   0  0  0  0  0  0  0  0  0  0  0  0
    6.0263    0.5451    2.3115 H   0  0  0  0  0  0  0  0  0  0  0  0
    6.7007    2.1405    2.6342 H   0  0  0  0  0  0  0  0  0  0  0  0
    8.2497    2.5724    0.0117 H   0  0  0  0  0  0  0  0  0  0  0  0
    6.9179    3.2841   -0.9198 H   0  0  0  0  0  0  0  0  0  0  0  0
    7.1765    3.7579    0.7629 H   0  0  0  0  0  0  0  0  0  0  0  0
  2  1  1  0
  3  5  2  0
  4  1  1  0
  5  8  1  0
  6  3  1  0
  7  2  1  0
  8  7  2  0
  9 14  1  0
 10  9  2  0
  2 11  1  0
  4 12  1  0
 13  3  1  0
 14  4  1  0
 15  6  1  0
 16  6  2  0
 17 10  1  0
 18  1  1  0
  1 19  1  6
 20 13  1  0
 21 20  1  0
 22 17  1  0
 23  7  1  0
 20 24  1  0
 25 18  1  0
 14 26  1  0
 17 27  1  0
 28 22  1  0
 29 22  1  0
 23 25  1  0
 12 11  1  0
 15 21  1  0
  2 30  1  1
  4 31  1  1
  5 32  1  0
  8 33  1  0
  9 34  1  0
 10 35  1  0
 11 36  1  0
 11 37  1  0
 12 38  1  0
 12 39  1  0
 13 40  1  0
 13 41  1  0
 14 42  1  6
 15 43  1  0
 15 44  1  0
 16 45  1  0
 16 46  1  0
 17 47  1  6
 18 48  1  0
 18 49  1  0
 19 50  1  0
 19 51  1  0
 19 52  1  0
 20 53  1  6
 21 54  1  0
 21 55  1  0
 22 56  1  0
 23 57  1  0
 23 58  1  0
 24 59  1  0
 25 60  1  0
 25 61  1  0
 26 62  1  0
 26 63  1  0
 26 64  1  0
 27 65  1  0
 27 66  1  0
 27 67  1  0
 28 68  1  0
 28 69  1  0
 28 70  1  0
 29 71  1  0
 29 72  1  0
 29 73  1  0
M  END
$$$$
