
     RDKit          3D

116115  0  0  0  0  0  0  0  0999 V2000
   -0.1919    0.3482    0.0000 O   0  0  0  0  0  0  0  0  0  0  0  0
   -6.9256   -0.6776    2.2452 O   0  0  0  0  0  0  0  0  0  0  0  0
   -2.1860    1.4635   -1.4026 O   0  0  0  0  0  0  0  0  0  0  0  0
    7.0305    0.3016    1.5611 O   0  0  0  0  0  0  0  0  0  0  0  0
   -6.3926   -0.1557   -2.6840 O   0  0  0  0  0  0  0  0  0  0  0  0
   -6.9139   -0.5365   -0.4355 N   0  0  0  0  0  0  0  0  0  0  0  0
   -0.1038   -0.5387   -1.6532 N   0  0  0  0  0  0  0  0  0  0  0  0
   -3.3258    0.2297    0.3534 C   0  0  0  0  0  0  0  0  0  0  0  0
   -5.7009   -0.2969    0.2382 C   0  0  0  0  0  0  0  0  0  0  0  0
   -5.7331   -0.3692    1.6365 C   0  0  0  0  0  0  0  0  0  0  0  0
   -4.4928   -0.0085   -0.3977 C   0  0  0  0  0  0  0  0  0  0  0  0
   -2.0058    0.5262   -0.3321 C   0  0  1  0  0  0  0  0  0  0  0  0
   -3.3876    0.1510    1.7537 C   0  0  0  0  0  0  0  0  0  0  0  0
   -4.5892   -0.1485    2.3983 C   0  0  0  0  0  0  0  0  0  0  0  0
   -1.3324   -0.7590   -0.8696 C   0  0  0  0  0  0  0  0  0  0  0  0
    3.5410   -0.6390   -0.5360 C   0  0  0  0  0  0  0  0  0  0  0  0
    1.0465   -0.1020   -0.8464 C   0  0  1  0  0  0  0  0  0  0  0  0
    2.2570   -0.9722   -1.2603 C   0  0  0  0  0  0  0  0  0  0  0  0
    5.9320    0.0190    0.7930 C   0  0  0  0  0  0  0  0  0  0  0  0
    4.5929   -0.0197   -1.2227 C   0  0  0  0  0  0  0  0  0  0  0  0
    3.7024   -0.9333    0.8216 C   0  0  0  0  0  0  0  0  0  0  0  0
   -7.1557   -0.4666   -1.7834 C   0  0  0  0  0  0  0  0  0  0  0  0
    5.7810    0.3100   -0.5619 C   0  0  0  0  0  0  0  0  0  0  0  0
    4.8904   -0.6057    1.4780 C   0  0  0  0  0  0  0  0  0  0  0  0
    1.3253    1.3907   -1.0781 C   0  0  0  0  0  0  0  0  0  0  0  0
    8.1754    0.7920    0.8776 C   0  0  0  0  0  0  0  0  0  0  0  0
   -2.2510    0.8293   -0.3314 O   0  0  0  0  0  0  0  0  0  0  0  0
    2.5995    1.0383   -0.2750 O   0  0  0  0  0  0  0  0  0  0  0  0
   -2.7852   -1.2393    0.3245 O   0  0  0  0  0  0  0  0  0  0  0  0
    2.3291   -1.0807    0.4151 O   0  0  0  0  0  0  0  0  0  0  0  0
   -1.9316   -0.4074    0.0775 C   0  0  0  0  0  0  0  0  0  0  0  0
    1.8481   -0.0218    0.0611 C   0  0  0  0  0  0  0  0  0  0  0  0
   -0.4900   -0.6354    0.1975 C   0  0  0  0  0  0  0  0  0  0  0  0
    0.4278    0.2985   -0.0826 C   0  0  0  0  0  0  0  0  0  0  0  0
   -6.5074    1.7799   -0.7566 O   0  0  0  0  0  0  0  0  0  0  0  0
   -2.1815   -2.8164   -1.6803 O   0  0  0  0  0  0  0  0  0  0  0  0
    6.9682    1.2403    0.9803 O   0  0  0  0  0  0  0  0  0  0  0  0
   -3.9892    0.6385    3.4020 O   0  0  0  0  0  0  0  0  0  0  0  0
   -5.3717    1.3191    1.6374 N   0  0  0  0  0  0  0  0  0  0  0  0
   -0.5070   -0.6455   -0.6114 N   0  0  0  0  0  0  0  0  0  0  0  0
   -3.5412   -1.1495   -0.5285 C   0  0  0  0  0  0  0  0  0  0  0  0
   -4.9388    0.5471    0.5420 C   0  0  0  0  0  0  0  0  0  0  0  0
   -5.5428    0.8042   -0.6945 C   0  0  0  0  0  0  0  0  0  0  0  0
   -3.9527   -0.4371    0.6186 C   0  0  0  0  0  0  0  0  0  0  0  0
   -2.4592   -2.2097   -0.4074 C   0  0  2  0  0  0  0  0  0  0  0  0
   -4.1725   -0.8689   -1.7510 C   0  0  0  0  0  0  0  0  0  0  0  0
   -5.1744    0.0994   -1.8367 C   0  0  0  0  0  0  0  0  0  0  0  0
   -1.1236   -1.6986    0.2042 C   0  0  0  0  0  0  0  0  0  0  0  0
    3.2772   -0.5194    0.0969 C   0  0  0  0  0  0  0  0  0  0  0  0
    0.7687   -0.1091   -0.1165 C   0  0  2  0  0  0  0  0  0  0  0  0
    1.9241   -1.1376   -0.1636 C   0  0  0  0  0  0  0  0  0  0  0  0
    5.7633    0.7104    0.6049 C   0  0  0  0  0  0  0  0  0  0  0  0
    3.8783    0.3075   -0.8620 C   0  0  0  0  0  0  0  0  0  0  0  0
    3.9410   -0.7368    1.3088 C   0  0  0  0  0  0  0  0  0  0  0  0
   -4.8878    1.3101    2.9217 C   0  0  0  0  0  0  0  0  0  0  0  0
    5.1139    0.9181   -0.6099 C   0  0  0  0  0  0  0  0  0  0  0  0
    5.1741   -0.1264    1.5525 C   0  0  0  0  0  0  0  0  0  0  0  0
    0.6100    0.5316    1.2699 C   0  0  0  0  0  0  0  0  0  0  0  0
    7.4803    2.2836    0.1633 C   0  0  0  0  0  0  0  0  0  0  0  0
   -0.0084    0.3997    0.0000 O   0  0  0  0  0  0  0  0  0  0  0  0
   -0.5743   -0.5424    0.0000 H   0  0  0  0  0  0  0  0  0  0  0  0
    0.7662    0.1943    0.0000 H   0  0  0  0  0  0  0  0  0  0  0  0
   -6.7585   -0.7743    3.1991 H   0  0  0  0  0  0  0  0  0  0  0  0
   -2.9419    2.0271   -1.1719 H   0  0  0  0  0  0  0  0  0  0  0  0
   -7.6903   -0.7669    0.1819 H   0  0  0  0  0  0  0  0  0  0  0  0
   -0.3259    0.1840   -2.3457 H   0  0  0  0  0  0  0  0  0  0  0  0
   -4.4352    0.0302   -1.4838 H   0  0  0  0  0  0  0  0  0  0  0  0
   -1.3416    1.0176    0.3849 H   0  0  0  0  0  0  0  0  0  0  0  0
   -2.4928    0.3228    2.3505 H   0  0  0  0  0  0  0  0  0  0  0  0
   -4.6096   -0.2083    3.4823 H   0  0  0  0  0  0  0  0  0  0  0  0
   -2.0275   -1.2525   -1.5560 H   0  0  0  0  0  0  0  0  0  0  0  0
   -1.1470   -1.4777   -0.0626 H   0  0  0  0  0  0  0  0  0  0  0  0
    0.8520   -0.2584    0.2211 H   0  0  0  0  0  0  0  0  0  0  0  0
    2.4248   -0.8878   -2.3432 H   0  0  0  0  0  0  0  0  0  0  0  0
    2.0372   -2.0345   -1.0803 H   0  0  0  0  0  0  0  0  0  0  0  0
    4.4937    0.2184   -2.2792 H   0  0  0  0  0  0  0  0  0  0  0  0
    2.9090   -1.4223    1.3802 H   0  0  0  0  0  0  0  0  0  0  0  0
   -8.2057   -0.7263   -1.9968 H   0  0  0  0  0  0  0  0  0  0  0  0
    6.5612    0.8012   -1.1350 H   0  0  0  0  0  0  0  0  0  0  0  0
    5.0061   -0.8402    2.5323 H   0  0  0  0  0  0  0  0  0  0  0  0
    2.1332    1.7438   -0.4325 H   0  0  0  0  0  0  0  0  0  0  0  0
    1.6131    1.5884   -2.1150 H   0  0  0  0  0  0  0  0  0  0  0  0
    0.4473    2.0009   -0.8489 H   0  0  0  0  0  0  0  0  0  0  0  0
    8.9820    0.9037    1.6097 H   0  0  0  0  0  0  0  0  0  0  0  0
    7.9762    1.7767    0.4418 H   0  0  0  0  0  0  0  0  0  0  0  0
    8.5110    0.0799    0.1146 H   0  0  0  0  0  0  0  0  0  0  0  0
   -3.2304    0.8195   -0.3587 H   0  0  0  0  0  0  0  0  0  0  0  0
    3.5213    0.7320   -0.1440 H   0  0  0  0  0  0  0  0  0  0  0  0
   -0.2112   -1.6262    0.5365 H   0  0  0  0  0  0  0  0  0  0  0  0
    0.1736    1.2932   -0.4204 H   0  0  0  0  0  0  0  0  0  0  0  0
   -6.8027    1.8544   -1.6803 H   0  0  0  0  0  0  0  0  0  0  0  0
   -1.6222   -3.5881   -1.5018 H   0  0  0  0  0  0  0  0  0  0  0  0
   -6.1049    1.9853    1.4078 H   0  0  0  0  0  0  0  0  0  0  0  0
   -0.4266   -0.9688   -1.5761 H   0  0  0  0  0  0  0  0  0  0  0  0
   -3.4816   -0.6622    1.5691 H   0  0  0  0  0  0  0  0  0  0  0  0
   -2.8544   -3.0092    0.2296 H   0  0  0  0  0  0  0  0  0  0  0  0
   -3.8863   -1.4077   -2.6517 H   0  0  0  0  0  0  0  0  0  0  0  0
   -5.6475    0.2812   -2.7940 H   0  0  0  0  0  0  0  0  0  0  0  0
   -1.3044   -1.3432    1.2224 H   0  0  0  0  0  0  0  0  0  0  0  0
   -0.4374   -2.5510    0.2629 H   0  0  0  0  0  0  0  0  0  0  0  0
    1.0189    0.7097   -0.8026 H   0  0  0  0  0  0  0  0  0  0  0  0
    1.9568   -1.6170   -1.1523 H   0  0  0  0  0  0  0  0  0  0  0  0
    1.7497   -1.9457    0.5586 H   0  0  0  0  0  0  0  0  0  0  0  0
    3.3792    0.4921   -1.8133 H   0  0  0  0  0  0  0  0  0  0  0  0
    3.4958   -1.3631    2.0804 H   0  0  0  0  0  0  0  0  0  0  0  0
   -5.4314    2.0439    3.5431 H   0  0  0  0  0  0  0  0  0  0  0  0
    5.5368    1.5495   -1.3827 H   0  0  0  0  0  0  0  0  0  0  0  0
    5.6798   -0.2998    2.4984 H   0  0  0  0  0  0  0  0  0  0  0  0
    1.4779    1.1529    1.5160 H   0  0  0  0  0  0  0  0  0  0  0  0
    0.5073   -0.2173    2.0624 H   0  0  0  0  0  0  0  0  0  0  0  0
   -0.2711    1.1827    1.2982 H   0  0  0  0  0  0  0  0  0  0  0  0
    8.3631    2.6915    0.6621 H   0  0  0  0  0  0  0  0  0  0  0  0
    7.7993    1.8979   -0.8089 H   0  0  0  0  0  0  0  0  0  0  0  0
    6.7565    3.0970    0.0452 H   0  0  0  0  0  0  0  0  0  0  0  0
    0.7655   -0.1839    0.0000 H   0  0  0  0  0  0  0  0  0  0  0  0
   -0.7571   -0.2158    0.0000 H   0  0  0  0  0  0  0  0  0  0  0  0
  2 10  1  0
  3 12  1  0
  4 19  1  0
  4 26  1  0
  5 22  2  0
  6  9  1  0
  6 22  1  0
  7 15  1  0
  7 17  1  0
  8 11  2  0
  8 12  1  0
  8 13  1  0
  9 10  2  0
  9 11  1  0
 10 14  1  0
 12 15  1  0
 13 14  2  0
 16 18  1  0
 16 20  2  0
 16 21  1  0
 17 18  1  0
 17 25  1  0
 19 23  2  0
 19 24  1  0
 20 23  1  0
 21 24  2  0
 27 31  1  0
 28 32  1  0
 29 31  2  0
 30 32  2  0
 31 33  1  0
 32 34  1  0
 33 34  2  0
 35 43  1  0
 36 45  1  0
 37 52  1  0
 37 59  1  0
 38 55  2  0
 39 42  1  0
 39 55  1  0
 40 48  1  0
 40 50  1  0
 41 44  2  0
 41 45  1  0
 41 46  1  0
 42 43  2  0
 42 44  1  0
 43 47  1  0
 45 48  1  0
 46 47  2  0
 49 51  1  0
 49 53  2  0
 49 54  1  0
 50 51  1  0
 50 58  1  0
 52 56  2  0
 52 57  1  0
 53 56  1  0
 54 57  2  0
  1 61  1  0
  1 62  1  0
  2 63  1  0
  3 64  1  0
  6 65  1  0
  7 66  1  0
 11 67  1  0
 12 68  1  1
 13 69  1  0
 14 70  1  0
 15 71  1  0
 15 72  1  0
 17 73  1  1
 18 74  1  0
 18 75  1  0
 20 76  1  0
 21 77  1  0
 22 78  1  0
 23 79  1  0
 24 80  1  0
 25 81  1  0
 25 82  1  0
 25 83  1  0
 26 84  1  0
 26 85  1  0
 26 86  1  0
 27 87  1  0
 28 88  1  0
 33 89  1  0
 34 90  1  0
 35 91  1  0
 36 92  1  0
 39 93  1  0
 40 94  1  0
 44 95  1  0
 45 96  1  1
 46 97  1  0
 47 98  1  0
 48 99  1  0
 48100  1  0
 50101  1  6
 51102  1  0
 51103  1  0
 53104  1  0
 54105  1  0
 55106  1  0
 56107  1  0
 57108  1  0
 58109  1  0
 58110  1  0
 58111  1  0
 59112  1  0
 59113  1  0
 59114  1  0
 60115  1  0
 60116  1  0
M  END
$$$$
