
     RDKit          3D

116115  0  0  0  0  0  0  0  0999 V2000
   -0.0730    0.3914    0.0000 O   0  0  0  0  0  0  0  0  0  0  0  0
   -6.8217   -0.0447    2.6695 O   0  0  0  0  0  0  0  0  0  0  0  0
   -2.6033    1.7568   -1.7176 O   0  0  0  0  0  0  0  0  0  0  0  0
    7.1452   -1.8447    0.2956 O   0  0  0  0  0  0  0  0  0  0  0  0
   -8.0957   -1.7867    1.3998 O   0  0  0  0  0  0  0  0  0  0  0  0
   -6.5104   -1.1264   -0.1768 N   0  0  0  0  0  0  0  0  0  0  0  0
   -0.1126    0.4377   -1.4132 N   0  0  0  0  0  0  0  0  0  0  0  0
   -3.4798    0.9332    0.3624 C   0  0  0  0  0  0  0  0  0  0  0  0
   -5.6207   -0.2821    0.5324 C   0  0  0  0  0  0  0  0  0  0  0  0
   -5.7626    0.1959    1.8421 C   0  0  0  0  0  0  0  0  0  0  0  0
   -4.4780    0.1118   -0.1910 C   0  0  0  0  0  0  0  0  0  0  0  0
   -2.2350    1.2818   -0.4183 C   0  0  1  0  0  0  0  0  0  0  0  0
   -3.6554    1.3953    1.6692 C   0  0  0  0  0  0  0  0  0  0  0  0
   -4.7886    1.0307    2.3981 C   0  0  0  0  0  0  0  0  0  0  0  0
   -1.2909    0.0665   -0.5935 C   0  0  0  0  0  0  0  0  0  0  0  0
    3.6362   -0.0738   -1.1219 C   0  0  0  0  0  0  0  0  0  0  0  0
    1.1599    0.3401   -0.6588 C   0  0  1  0  0  0  0  0  0  0  0  0
    2.3422    0.4997   -1.6491 C   0  0  0  0  0  0  0  0  0  0  0  0
    6.0296   -1.1820   -0.1414 C   0  0  0  0  0  0  0  0  0  0  0  0
    3.8717   -1.4499   -1.2147 C   0  0  0  0  0  0  0  0  0  0  0  0
    4.6094    0.7417   -0.5335 C   0  0  0  0  0  0  0  0  0  0  0  0
   -7.6254   -1.7841    0.2706 C   0  0  0  0  0  0  0  0  0  0  0  0
    5.0603   -1.9965   -0.7275 C   0  0  0  0  0  0  0  0  0  0  0  0
    5.7997    0.1898   -0.0454 C   0  0  0  0  0  0  0  0  0  0  0  0
    1.2323    1.4118    0.4362 C   0  0  0  0  0  0  0  0  0  0  0  0
    8.1777   -1.0510    0.8648 C   0  0  0  0  0  0  0  0  0  0  0  0
    2.4301   -0.3195    0.2458 O   0  0  0  0  0  0  0  0  0  0  0  0
   -2.4362    0.3287   -0.1710 O   0  0  0  0  0  0  0  0  0  0  0  0
    1.6680   -2.4201    0.3978 O   0  0  0  0  0  0  0  0  0  0  0  0
   -1.6657    2.4067   -0.4767 O   0  0  0  0  0  0  0  0  0  0  0  0
    1.4451   -1.2313    0.2538 C   0  0  0  0  0  0  0  0  0  0  0  0
   -1.4432    1.2267   -0.2710 C   0  0  0  0  0  0  0  0  0  0  0  0
    0.1076   -0.6561    0.0780 C   0  0  0  0  0  0  0  0  0  0  0  0
   -0.1052    0.6547   -0.1009 C   0  0  0  0  0  0  0  0  0  0  0  0
   -5.3312   -1.5330   -2.9271 O   0  0  0  0  0  0  0  0  0  0  0  0
   -2.9671    0.7734    2.4709 O   0  0  0  0  0  0  0  0  0  0  0  0
    7.1838    0.1963   -0.9183 O   0  0  0  0  0  0  0  0  0  0  0  0
   -7.5650   -2.2109   -2.0662 O   0  0  0  0  0  0  0  0  0  0  0  0
   -6.7785   -0.9113   -0.3033 N   0  0  0  0  0  0  0  0  0  0  0  0
   -0.3981    0.4699    1.0957 N   0  0  0  0  0  0  0  0  0  0  0  0
   -3.4099    0.6035    0.1152 C   0  0  0  0  0  0  0  0  0  0  0  0
   -5.4543   -0.5600   -0.6674 C   0  0  0  0  0  0  0  0  0  0  0  0
   -4.7992   -0.8530   -1.8675 C   0  0  0  0  0  0  0  0  0  0  0  0
   -4.7431    0.1761    0.3037 C   0  0  0  0  0  0  0  0  0  0  0  0
   -2.7284    1.4138    1.2055 C   0  0  2  0  0  0  0  0  0  0  0  0
   -2.7957    0.2940   -1.1000 C   0  0  0  0  0  0  0  0  0  0  0  0
   -3.4870   -0.4219   -2.0783 C   0  0  0  0  0  0  0  0  0  0  0  0
   -1.2019    1.6968    1.0737 C   0  0  0  0  0  0  0  0  0  0  0  0
    3.1839   -0.3650    0.1498 C   0  0  0  0  0  0  0  0  0  0  0  0
    1.0521    0.6981    1.1027 C   0  0  2  0  0  0  0  0  0  0  0  0
    1.7227   -0.5521    0.4884 C   0  0  0  0  0  0  0  0  0  0  0  0
    5.9034   -0.0424   -0.5013 C   0  0  0  0  0  0  0  0  0  0  0  0
    3.5688    0.4755   -0.9025 C   0  0  0  0  0  0  0  0  0  0  0  0
    4.1757   -1.0370    0.8729 C   0  0  0  0  0  0  0  0  0  0  0  0
   -7.6984   -1.6630   -0.9812 C   0  0  0  0  0  0  0  0  0  0  0  0
    4.9191    0.6405   -1.2159 C   0  0  0  0  0  0  0  0  0  0  0  0
    5.5272   -0.8769    0.5509 C   0  0  0  0  0  0  0  0  0  0  0  0
    1.5502    0.9582    2.5303 C   0  0  0  0  0  0  0  0  0  0  0  0
    8.1891   -0.6680   -0.4003 C   0  0  0  0  0  0  0  0  0  0  0  0
   -0.0766    0.3915    0.0000 O   0  0  0  0  0  0  0  0  0  0  0  0
   -0.7149   -0.3356    0.0000 H   0  0  0  0  0  0  0  0  0  0  0  0
    0.7879   -0.0558    0.0000 H   0  0  0  0  0  0  0  0  0  0  0  0
   -7.3771   -0.7595    2.2885 H   0  0  0  0  0  0  0  0  0  0  0  0
   -1.7463    1.8023   -2.1900 H   0  0  0  0  0  0  0  0  0  0  0  0
   -6.2674   -1.3032   -1.1436 H   0  0  0  0  0  0  0  0  0  0  0  0
   -0.0592   -0.2241   -2.1890 H   0  0  0  0  0  0  0  0  0  0  0  0
   -4.3442   -0.2234   -1.2194 H   0  0  0  0  0  0  0  0  0  0  0  0
   -1.7061    2.1024    0.0795 H   0  0  0  0  0  0  0  0  0  0  0  0
   -2.9225    2.0459    2.1370 H   0  0  0  0  0  0  0  0  0  0  0  0
   -4.9297    1.4144    3.4063 H   0  0  0  0  0  0  0  0  0  0  0  0
   -1.0203   -0.3748    0.3745 H   0  0  0  0  0  0  0  0  0  0  0  0
   -1.8238   -0.7164   -1.1510 H   0  0  0  0  0  0  0  0  0  0  0  0
    1.2132   -0.6542   -0.1914 H   0  0  0  0  0  0  0  0  0  0  0  0
    2.4765    1.5523   -1.9303 H   0  0  0  0  0  0  0  0  0  0  0  0
    2.1189   -0.0247   -2.5902 H   0  0  0  0  0  0  0  0  0  0  0  0
    3.1341   -2.1073   -1.6682 H   0  0  0  0  0  0  0  0  0  0  0  0
    4.4488    1.8143   -0.4430 H   0  0  0  0  0  0  0  0  0  0  0  0
   -8.0904   -2.3726   -0.5404 H   0  0  0  0  0  0  0  0  0  0  0  0
    5.2295   -3.0683   -0.8061 H   0  0  0  0  0  0  0  0  0  0  0  0
    6.5226    0.8614    0.4053 H   0  0  0  0  0  0  0  0  0  0  0  0
    2.1779    1.3565    0.9826 H   0  0  0  0  0  0  0  0  0  0  0  0
    1.1526    2.4175    0.0080 H   0  0  0  0  0  0  0  0  0  0  0  0
    0.4366    1.2918    1.1791 H   0  0  0  0  0  0  0  0  0  0  0  0
    8.9966   -1.7214    1.1399 H   0  0  0  0  0  0  0  0  0  0  0  0
    7.8325   -0.5500    1.7762 H   0  0  0  0  0  0  0  0  0  0  0  0
    8.5631   -0.3298    0.1361 H   0  0  0  0  0  0  0  0  0  0  0  0
    3.2454   -0.8476    0.3768 H   0  0  0  0  0  0  0  0  0  0  0  0
   -3.2488    0.8629   -0.2977 H   0  0  0  0  0  0  0  0  0  0  0  0
   -0.7017   -1.3787    0.0961 H   0  0  0  0  0  0  0  0  0  0  0  0
    0.7046    1.3737   -0.1311 H   0  0  0  0  0  0  0  0  0  0  0  0
   -6.2038   -1.8912   -2.6728 H   0  0  0  0  0  0  0  0  0  0  0  0
   -2.6037    1.3602    3.1536 H   0  0  0  0  0  0  0  0  0  0  0  0
   -7.0834   -0.5826    0.6055 H   0  0  0  0  0  0  0  0  0  0  0  0
   -0.6952   -0.1343    1.8631 H   0  0  0  0  0  0  0  0  0  0  0  0
   -5.2200    0.4245    1.2530 H   0  0  0  0  0  0  0  0  0  0  0  0
   -3.2435    2.3827    1.2393 H   0  0  0  0  0  0  0  0  0  0  0  0
   -1.7678    0.5829   -1.3128 H   0  0  0  0  0  0  0  0  0  0  0  0
   -2.9989   -0.6565   -3.0198 H   0  0  0  0  0  0  0  0  0  0  0  0
   -0.9094    2.3333    1.9166 H   0  0  0  0  0  0  0  0  0  0  0  0
   -1.0028    2.2572    0.1544 H   0  0  0  0  0  0  0  0  0  0  0  0
    1.2905    1.5684    0.4785 H   0  0  0  0  0  0  0  0  0  0  0  0
    1.5985   -1.4169    1.1552 H   0  0  0  0  0  0  0  0  0  0  0  0
    1.2076   -0.8244   -0.4436 H   0  0  0  0  0  0  0  0  0  0  0  0
    2.8200    1.0036   -1.4867 H   0  0  0  0  0  0  0  0  0  0  0  0
    3.9062   -1.6956    1.6950 H   0  0  0  0  0  0  0  0  0  0  0  0
   -8.6445   -1.7386   -0.4171 H   0  0  0  0  0  0  0  0  0  0  0  0
    5.2034    1.3015   -2.0324 H   0  0  0  0  0  0  0  0  0  0  0  0
    6.2620   -1.4139    1.1408 H   0  0  0  0  0  0  0  0  0  0  0  0
    2.6296    1.1439    2.5433 H   0  0  0  0  0  0  0  0  0  0  0  0
    1.3488    0.1074    3.1919 H   0  0  0  0  0  0  0  0  0  0  0  0
    1.0674    1.8395    2.9660 H   0  0  0  0  0  0  0  0  0  0  0  0
    8.3420   -0.4955    0.6703 H   0  0  0  0  0  0  0  0  0  0  0  0
    7.9520   -1.7206   -0.6008 H   0  0  0  0  0  0  0  0  0  0  0  0
    9.1266   -0.4369   -0.9155 H   0  0  0  0  0  0  0  0  0  0  0  0
    0.7870   -0.0484    0.0000 H   0  0  0  0  0  0  0  0  0  0  0  0
   -0.7104   -0.3431    0.0000 H   0  0  0  0  0  0  0  0  0  0  0  0
  2 10  1  0
  3 12  1  0
  4 19  1  0
  4 26  1  0
  5 22  2  0
  6  9  1  0
  6 22  1  0
  7 15  1  0
  7 17  1  0
  8 11  2  0
  8 12  1  0
  8 13  1  0
  9 10  2  0
  9 11  1  0
 10 14  1  0
 12 15  1  0
 13 14  2  0
 16 18  1  0
 16 20  2  0
 16 21  1  0
 17 18  1  0
 17 25  1  0
 19 23  2  0
 19 24  1  0
 20 23  1  0
 21 24  2  0
 27 31  1  0
 28 32  1  0
 29 31  2  0
 30 32  2  0
 31 33  1  0
 32 34  1  0
 33 34  2  0
 35 43  1  0
 36 45  1  0
 37 52  1  0
 37 59  1  0
 38 55  2  0
 39 42  1  0
 39 55  1  0
 40 48  1  0
 40 50  1  0
 41 44  2  0
 41 45  1  0
 41 46  1  0
 42 43  2  0
 42 44  1  0
 43 47  1  0
 45 48  1  0
 46 47  2  0
 49 51  1  0
 49 53  2  0
 49 54  1  0
 50 51  1  0
 50 58  1  0
 52 56  2  0
 52 57  1  0
 53 56  1  0
 54 57  2  0
  1 61  1  0
  1 62  1  0
  2 63  1  0
  3 64  1  0
  6 65  1  0
  7 66  1  0
 11 67  1  0
 12 68  1  1
 13 69  1  0
 14 70  1  0
 15 71  1  0
 15 72  1  0
 17 73  1  1
 18 74  1  0
 18 75  1  0
 20 76  1  0
 21 77  1  0
 22 78  1  0
 23 79  1  0
 24 80  1  0
 25 81  1  0
 25 82  1  0
 25 83  1  0
 26 84  1  0
 26 85  1  0
 26 86  1  0
 27 87  1  0
 28 88  1  0
 33 89  1  0
 34 90  1  0
 35 91  1  0
 36 92  1  0
 39 93  1  0
 40 94  1  0
 44 95  1  0
 45 96  1  1
 46 97  1  0
 47 98  1  0
 48 99  1  0
 48100  1  0
 50101  1  6
 51102  1  0
 51103  1  0
 53104  1  0
 54105  1  0
 55106  1  0
 56107  1  0
 57108  1  0
 58109  1  0
 58110  1  0
 58111  1  0
 59112  1  0
 59113  1  0
 59114  1  0
 60115  1  0
 60116  1  0
M  END
$$$$
