
     RDKit          3D

116115  0  0  0  0  0  0  0  0999 V2000
    0.0198    0.3981    0.0000 O   0  0  0  0  0  0  0  0  0  0  0  0
   -6.7909    1.0209    2.5062 O   0  0  0  0  0  0  0  0  0  0  0  0
   -2.2299   -2.2565   -0.3235 O   0  0  0  0  0  0  0  0  0  0  0  0
    7.4292    1.4112    0.2237 O   0  0  0  0  0  0  0  0  0  0  0  0
   -7.0536   -2.4242   -1.0926 O   0  0  0  0  0  0  0  0  0  0  0  0
   -7.2340   -0.8204    0.6005 N   0  0  0  0  0  0  0  0  0  0  0  0
    0.0160   -0.8226   -1.2315 N   0  0  0  0  0  0  0  0  0  0  0  0
   -3.5242   -0.2979    0.2718 C   0  0  0  0  0  0  0  0  0  0  0  0
   -5.9167   -0.3529    0.7729 C   0  0  0  0  0  0  0  0  0  0  0  0
   -5.7075    0.5998    1.7760 C   0  0  0  0  0  0  0  0  0  0  0  0
   -4.8263   -0.7878    0.0213 C   0  0  0  0  0  0  0  0  0  0  0  0
   -2.3822   -0.8445   -0.5689 C   0  0  1  0  0  0  0  0  0  0  0  0
   -3.3506    0.6557    1.2848 C   0  0  0  0  0  0  0  0  0  0  0  0
   -4.4375    1.1063    2.0363 C   0  0  0  0  0  0  0  0  0  0  0  0
   -0.9861   -0.1971   -0.3514 C   0  0  0  0  0  0  0  0  0  0  0  0
    3.3357    1.0191   -0.5226 C   0  0  0  0  0  0  0  0  0  0  0  0
    1.4210   -0.6513   -0.8171 C   0  0  1  0  0  0  0  0  0  0  0  0
    1.8482    0.8358   -0.7331 C   0  0  0  0  0  0  0  0  0  0  0  0
    6.1107    1.2649   -0.1084 C   0  0  0  0  0  0  0  0  0  0  0  0
    4.2432    0.6951   -1.5411 C   0  0  0  0  0  0  0  0  0  0  0  0
    3.8325    1.4929    0.6992 C   0  0  0  0  0  0  0  0  0  0  0  0
   -7.6839   -1.7778   -0.2713 C   0  0  0  0  0  0  0  0  0  0  0  0
    5.6222    0.8164   -1.3356 C   0  0  0  0  0  0  0  0  0  0  0  0
    5.2087    1.6186    0.8977 C   0  0  0  0  0  0  0  0  0  0  0  0
    1.7341   -1.4308    0.4713 C   0  0  0  0  0  0  0  0  0  0  0  0
    8.3701    0.7816   -0.6347 C   0  0  0  0  0  0  0  0  0  0  0  0
   -2.7012    0.6138   -0.4709 O   0  0  0  0  0  0  0  0  0  0  0  0
    2.1311    0.7265   -0.8895 O   0  0  0  0  0  0  0  0  0  0  0  0
   -2.1776   -0.8927    1.1080 O   0  0  0  0  0  0  0  0  0  0  0  0
    2.9083   -0.7711    0.5765 O   0  0  0  0  0  0  0  0  0  0  0  0
   -1.8277   -0.1093    0.2458 C   0  0  0  0  0  0  0  0  0  0  0  0
    1.9611   -0.1962    0.0702 C   0  0  0  0  0  0  0  0  0  0  0  0
   -0.4594    0.1952   -0.1747 C   0  0  0  0  0  0  0  0  0  0  0  0
    0.5595   -0.4349    0.4242 C   0  0  0  0  0  0  0  0  0  0  0  0
   -6.1243   -1.7473    1.6028 O   0  0  0  0  0  0  0  0  0  0  0  0
   -1.6827   -1.6896   -2.7677 O   0  0  0  0  0  0  0  0  0  0  0  0
    6.0374   -1.0452    1.2746 O   0  0  0  0  0  0  0  0  0  0  0  0
   -4.3318    2.6244   -0.1196 O   0  0  0  0  0  0  0  0  0  0  0  0
   -5.2445    0.8086    1.0465 N   0  0  0  0  0  0  0  0  0  0  0  0
   -0.1016    0.6081   -0.2860 N   0  0  0  0  0  0  0  0  0  0  0  0
   -2.6158   -1.3167   -0.5932 C   0  0  0  0  0  0  0  0  0  0  0  0
   -4.5126   -0.2945    0.5572 C   0  0  0  0  0  0  0  0  0  0  0  0
   -4.9491   -1.5759    0.9204 C   0  0  0  0  0  0  0  0  0  0  0  0
   -3.3523   -0.1779   -0.2130 C   0  0  0  0  0  0  0  0  0  0  0  0
   -1.3558   -1.2512   -1.4403 C   0  0  2  0  0  0  0  0  0  0  0  0
   -3.0840   -2.5834   -0.2007 C   0  0  0  0  0  0  0  0  0  0  0  0
   -4.2410   -2.7161    0.5640 C   0  0  0  0  0  0  0  0  0  0  0  0
   -0.6244    0.1122   -1.5623 C   0  0  0  0  0  0  0  0  0  0  0  0
    2.9695    1.1763   -0.5018 C   0  0  0  0  0  0  0  0  0  0  0  0
    0.4887    1.9498   -0.3889 C   0  0  2  0  0  0  0  0  0  0  0  0
    1.8623    2.0143   -1.1044 C   0  0  0  0  0  0  0  0  0  0  0  0
    5.0173   -0.3946    0.6366 C   0  0  0  0  0  0  0  0  0  0  0  0
    3.7789    1.6924    0.5164 C   0  0  0  0  0  0  0  0  0  0  0  0
    3.2027   -0.1313   -0.9480 C   0  0  0  0  0  0  0  0  0  0  0  0
   -5.0603    2.1319    0.7302 C   0  0  0  0  0  0  0  0  0  0  0  0
    4.7924    0.9114    1.0787 C   0  0  0  0  0  0  0  0  0  0  0  0
    4.2181   -0.9132   -0.3820 C   0  0  0  0  0  0  0  0  0  0  0  0
    0.5503    2.5279    1.0276 C   0  0  0  0  0  0  0  0  0  0  0  0
    6.2659   -2.3996    0.9110 C   0  0  0  0  0  0  0  0  0  0  0  0
   -0.0090    0.3982    0.0000 O   0  0  0  0  0  0  0  0  0  0  0  0
    0.7517   -0.2370    0.0000 H   0  0  0  0  0  0  0  0  0  0  0  0
   -0.7715   -0.1611    0.0000 H   0  0  0  0  0  0  0  0  0  0  0  0
   -6.4833    1.6657    3.1632 H   0  0  0  0  0  0  0  0  0  0  0  0
   -2.8826   -2.5193    0.3499 H   0  0  0  0  0  0  0  0  0  0  0  0
   -7.9095   -0.4009    1.2330 H   0  0  0  0  0  0  0  0  0  0  0  0
   -0.2027   -1.8242   -1.2638 H   0  0  0  0  0  0  0  0  0  0  0  0
   -4.9588   -1.5203   -0.7723 H   0  0  0  0  0  0  0  0  0  0  0  0
   -2.6607   -0.7248   -1.6239 H   0  0  0  0  0  0  0  0  0  0  0  0
   -2.3701    1.0669    1.5087 H   0  0  0  0  0  0  0  0  0  0  0  0
   -4.2708    1.8437    2.8167 H   0  0  0  0  0  0  0  0  0  0  0  0
   -1.0292    0.8765   -0.5539 H   0  0  0  0  0  0  0  0  0  0  0  0
   -0.7047   -0.3483    0.6954 H   0  0  0  0  0  0  0  0  0  0  0  0
    2.0128   -1.1250   -1.6120 H   0  0  0  0  0  0  0  0  0  0  0  0
    1.5709    1.3557   -1.6595 H   0  0  0  0  0  0  0  0  0  0  0  0
    1.3022    1.3490    0.0674 H   0  0  0  0  0  0  0  0  0  0  0  0
    3.8805    0.3367   -2.5022 H   0  0  0  0  0  0  0  0  0  0  0  0
    3.1533    1.7574    1.5064 H   0  0  0  0  0  0  0  0  0  0  0  0
   -8.7701   -1.9271   -0.1507 H   0  0  0  0  0  0  0  0  0  0  0  0
    6.2862    0.5566   -2.1543 H   0  0  0  0  0  0  0  0  0  0  0  0
    5.5858    1.9783    1.8523 H   0  0  0  0  0  0  0  0  0  0  0  0
    2.8159   -1.5191    0.6195 H   0  0  0  0  0  0  0  0  0  0  0  0
    1.3389   -2.4526    0.4265 H   0  0  0  0  0  0  0  0  0  0  0  0
    1.3177   -0.9446    1.3596 H   0  0  0  0  0  0  0  0  0  0  0  0
    8.1520   -0.2839   -0.7590 H   0  0  0  0  0  0  0  0  0  0  0  0
    8.4222    1.2888   -1.6052 H   0  0  0  0  0  0  0  0  0  0  0  0
    9.3560    0.8602   -0.1645 H   0  0  0  0  0  0  0  0  0  0  0  0
   -3.5775    0.3447   -0.1259 H   0  0  0  0  0  0  0  0  0  0  0  0
    3.1032    0.7660   -1.0101 H   0  0  0  0  0  0  0  0  0  0  0  0
   -0.3256    0.9267   -0.9629 H   0  0  0  0  0  0  0  0  0  0  0  0
    0.4058   -1.1687    1.2094 H   0  0  0  0  0  0  0  0  0  0  0  0
   -6.8007   -1.2927    1.0682 H   0  0  0  0  0  0  0  0  0  0  0  0
   -2.6375   -1.5506   -2.8860 H   0  0  0  0  0  0  0  0  0  0  0  0
   -5.9240    0.5971    1.7686 H   0  0  0  0  0  0  0  0  0  0  0  0
    0.5820   -0.0433    0.1013 H   0  0  0  0  0  0  0  0  0  0  0  0
   -2.9876    0.8059   -0.4922 H   0  0  0  0  0  0  0  0  0  0  0  0
   -0.6354   -1.9734   -1.0366 H   0  0  0  0  0  0  0  0  0  0  0  0
   -2.5343   -3.4787   -0.4914 H   0  0  0  0  0  0  0  0  0  0  0  0
   -4.5906   -3.7012    0.8612 H   0  0  0  0  0  0  0  0  0  0  0  0
    0.1973   -0.0129   -2.2788 H   0  0  0  0  0  0  0  0  0  0  0  0
   -1.3026    0.8451   -2.0189 H   0  0  0  0  0  0  0  0  0  0  0  0
   -0.2014    2.5940   -0.9487 H   0  0  0  0  0  0  0  0  0  0  0  0
    1.7423    1.7318   -2.1591 H   0  0  0  0  0  0  0  0  0  0  0  0
    2.1950    3.0605   -1.1401 H   0  0  0  0  0  0  0  0  0  0  0  0
    3.6258    2.7048    0.8853 H   0  0  0  0  0  0  0  0  0  0  0  0
    2.5955   -0.5544   -1.7448 H   0  0  0  0  0  0  0  0  0  0  0  0
   -5.7077    2.7704    1.3539 H   0  0  0  0  0  0  0  0  0  0  0  0
    5.4104    1.3264    1.8724 H   0  0  0  0  0  0  0  0  0  0  0  0
    4.3586   -1.9199   -0.7620 H   0  0  0  0  0  0  0  0  0  0  0  0
    0.9911    3.5299    1.0205 H   0  0  0  0  0  0  0  0  0  0  0  0
    1.1366    1.9006    1.7070 H   0  0  0  0  0  0  0  0  0  0  0  0
   -0.4569    2.6127    1.4528 H   0  0  0  0  0  0  0  0  0  0  0  0
    6.5894   -2.4762   -0.1320 H   0  0  0  0  0  0  0  0  0  0  0  0
    5.3794   -3.0145    1.0980 H   0  0  0  0  0  0  0  0  0  0  0  0
    7.0723   -2.7822    1.5435 H   0  0  0  0  0  0  0  0  0  0  0  0
   -0.7580   -0.2164    0.0000 H   0  0  0  0  0  0  0  0  0  0  0  0
    0.7671   -0.1818    0.0000 H   0  0  0  0  0  0  0  0  0  0  0  0
  2 10  1  0
  3 12  1  0
  4 19  1  0
  4 26  1  0
  5 22  2  0
  6  9  1  0
  6 22  1  0
  7 15  1  0
  7 17  1  0
  8 11  2  0
  8 12  1  0
  8 13  1  0
  9 10  2  0
  9 11  1  0
 10 14  1  0
 12 15  1  0
 13 14  2  0
 16 18  1  0
 16 20  2  0
 16 21  1  0
 17 18  1  0
 17 25  1  0
 19 23  2  0
 19 24  1  0
 20 23  1  0
 21 24  2  0
 27 31  1  0
 28 32  1  0
 29 31  2  0
 30 32  2  0
 31 33  1  0
 32 34  1  0
 33 34  2  0
 35 43  1  0
 36 45  1  0
 37 52  1  0
 37 59  1  0
 38 55  2  0
 39 42  1  0
 39 55  1  0
 40 48  1  0
 40 50  1  0
 41 44  2  0
 41 45  1  0
 41 46  1  0
 42 43  2  0
 42 44  1  0
 43 47  1  0
 45 48  1  0
 46 47  2  0
 49 51  1  0
 49 53  2  0
 49 54  1  0
 50 51  1  0
 50 58  1  0
 52 56  2  0
 52 57  1  0
 53 56  1  0
 54 57  2  0
  1 61  1  0
  1 62  1  0
  2 63  1  0
  3 64  1  0
  6 65  1  0
  7 66  1  0
 11 67  1  0
 12 68  1  6
 13 69  1  0
 14 70  1  0
 15 71  1  0
 15 72  1  0
 17 73  1  6
 18 74  1  0
 18 75  1  0
 20 76  1  0
 21 77  1  0
 22 78  1  0
 23 79  1  0
 24 80  1  0
 25 81  1  0
 25 82  1  0
 25 83  1  0
 26 84  1  0
 26 85  1  0
 26 86  1  0
 27 87  1  0
 28 88  1  0
 33 89  1  0
 34 90  1  0
 35 91  1  0
 36 92  1  0
 39 93  1  0
 40 94  1  0
 44 95  1  0
 45 96  1  1
 46 97  1  0
 47 98  1  0
 48 99  1  0
 48100  1  0
 50101  1  6
 51102  1  0
 51103  1  0
 53104  1  0
 54105  1  0
 55106  1  0
 56107  1  0
 57108  1  0
 58109  1  0
 58110  1  0
 58111  1  0
 59112  1  0
 59113  1  0
 59114  1  0
 60115  1  0
 60116  1  0
M  END
$$$$
