
     RDKit          3D

116115  0  0  0  0  0  0  0  0999 V2000
    0.0001    0.3977    0.0000 O   0  0  0  0  0  0  0  0  0  0  0  0
   -4.3702    2.5529    1.8628 O   0  0  0  0  0  0  0  0  0  0  0  0
   -3.6228   -2.4988   -1.8149 O   0  0  0  0  0  0  0  0  0  0  0  0
    5.5342    2.0183   -0.5920 O   0  0  0  0  0  0  0  0  0  0  0  0
   -0.7152    2.7410   -1.5067 O   0  0  0  0  0  0  0  0  0  0  0  0
   -2.4891    2.9665   -0.0085 N   0  0  0  0  0  0  0  0  0  0  0  0
   -0.7951   -2.5474    0.7008 N   0  0  0  0  0  0  0  0  0  0  0  0
   -3.0426   -0.7256   -0.3350 C   0  0  0  0  0  0  0  0  0  0  0  0
   -2.9638    1.6535    0.1629 C   0  0  0  0  0  0  0  0  0  0  0  0
   -3.9506    1.4624    1.1383 C   0  0  0  0  0  0  0  0  0  0  0  0
   -2.5105    0.5543   -0.5646 C   0  0  0  0  0  0  0  0  0  0  0  0
   -2.5208   -1.9116   -1.1258 C   0  0  1  0  0  0  0  0  0  0  0  0
   -4.0509   -0.8829    0.6311 C   0  0  0  0  0  0  0  0  0  0  0  0
   -4.5013    0.2070    1.3748 C   0  0  0  0  0  0  0  0  0  0  0  0
   -1.8256   -2.9904   -0.2465 C   0  0  0  0  0  0  0  0  0  0  0  0
    2.3408   -0.3690    0.6673 C   0  0  0  0  0  0  0  0  0  0  0  0
    0.3938   -1.9393    0.0700 C   0  0  1  0  0  0  0  0  0  0  0  0
    1.2211   -1.2449    1.1816 C   0  0  0  0  0  0  0  0  0  0  0  0
    4.4317    1.2940   -0.2293 C   0  0  0  0  0  0  0  0  0  0  0  0
    2.0658    0.7753   -0.0936 C   0  0  0  0  0  0  0  0  0  0  0  0
    3.6700   -0.6732    0.9759 C   0  0  0  0  0  0  0  0  0  0  0  0
   -1.4754    3.4025   -0.8182 C   0  0  0  0  0  0  0  0  0  0  0  0
    3.1061    1.5955   -0.5457 C   0  0  0  0  0  0  0  0  0  0  0  0
    4.7023    0.1554    0.5318 C   0  0  0  0  0  0  0  0  0  0  0  0
    1.2320   -3.0053   -0.6483 C   0  0  0  0  0  0  0  0  0  0  0  0
    5.3038    3.2309   -1.2884 C   0  0  0  0  0  0  0  0  0  0  0  0
    2.8991   -0.2109   -0.2173 O   0  0  0  0  0  0  0  0  0  0  0  0
   -2.8976    0.2225    0.0101 O   0  0  0  0  0  0  0  0  0  0  0  0
    1.8597    1.2458    1.1327 O   0  0  0  0  0  0  0  0  0  0  0  0
   -1.8584   -1.2597   -1.3096 O   0  0  0  0  0  0  0  0  0  0  0  0
    1.8031    0.3633    0.2991 C   0  0  0  0  0  0  0  0  0  0  0  0
   -1.8021   -0.3646   -0.4897 C   0  0  0  0  0  0  0  0  0  0  0  0
    0.5997   -0.2262   -0.2868 C   0  0  0  0  0  0  0  0  0  0  0  0
   -0.6001    0.2222    0.1017 C   0  0  0  0  0  0  0  0  0  0  0  0
   -7.6725    0.3176    0.0860 O   0  0  0  0  0  0  0  0  0  0  0  0
   -2.1088   -2.7944   -0.2598 O   0  0  0  0  0  0  0  0  0  0  0  0
    7.1935    1.0862    0.9063 O   0  0  0  0  0  0  0  0  0  0  0  0
   -3.7280    3.3592    0.3691 O   0  0  0  0  0  0  0  0  0  0  0  0
   -5.7356    2.1701    0.3937 N   0  0  0  0  0  0  0  0  0  0  0  0
   -0.0582   -1.2605   -1.2304 N   0  0  0  0  0  0  0  0  0  0  0  0
   -3.6984   -0.9659    0.0384 C   0  0  0  0  0  0  0  0  0  0  0  0
   -5.3471    0.8249    0.2380 C   0  0  0  0  0  0  0  0  0  0  0  0
   -6.3700   -0.1184    0.0896 C   0  0  0  0  0  0  0  0  0  0  0  0
   -4.0213    0.3932    0.2280 C   0  0  0  0  0  0  0  0  0  0  0  0
   -2.2393   -1.3936    0.0275 C   0  0  2  0  0  0  0  0  0  0  0  0
   -4.7486   -1.8890   -0.1023 C   0  0  0  0  0  0  0  0  0  0  0  0
   -6.0808   -1.4695   -0.0692 C   0  0  0  0  0  0  0  0  0  0  0  0
   -1.3737   -0.6101   -1.0097 C   0  0  0  0  0  0  0  0  0  0  0  0
    3.6395   -0.5991   -0.5108 C   0  0  0  0  0  0  0  0  0  0  0  0
    1.0624   -0.6034   -0.5200 C   0  0  2  0  0  0  0  0  0  0  0  0
    2.3782   -1.2553   -1.0149 C   0  0  0  0  0  0  0  0  0  0  0  0
    6.0080    0.6184    0.4086 C   0  0  0  0  0  0  0  0  0  0  0  0
    4.5224   -1.2980    0.3172 C   0  0  0  0  0  0  0  0  0  0  0  0
    3.9570    0.7149   -0.8766 C   0  0  0  0  0  0  0  0  0  0  0  0
   -4.9410    3.2816    0.4594 C   0  0  0  0  0  0  0  0  0  0  0  0
    5.6895   -0.6880    0.7829 C   0  0  0  0  0  0  0  0  0  0  0  0
    5.1299    1.3215   -0.4165 C   0  0  0  0  0  0  0  0  0  0  0  0
    0.9198   -0.7261    0.9993 C   0  0  0  0  0  0  0  0  0  0  0  0
    7.6423    2.3419    0.4125 C   0  0  0  0  0  0  0  0  0  0  0  0
    0.0414    0.3956    0.0000 O   0  0  0  0  0  0  0  0  0  0  0  0
   -0.7637   -0.1988    0.0000 H   0  0  0  0  0  0  0  0  0  0  0  0
    0.7636   -0.1988    0.0000 H   0  0  0  0  0  0  0  0  0  0  0  0
   -4.9190    2.2375    2.6012 H   0  0  0  0  0  0  0  0  0  0  0  0
   -3.2904   -3.2960   -2.2635 H   0  0  0  0  0  0  0  0  0  0  0  0
   -2.9610    3.6516    0.5709 H   0  0  0  0  0  0  0  0  0  0  0  0
   -1.2200   -1.8555    1.3200 H   0  0  0  0  0  0  0  0  0  0  0  0
   -1.7512    0.6750   -1.3293 H   0  0  0  0  0  0  0  0  0  0  0  0
   -1.8193   -1.5706   -1.8973 H   0  0  0  0  0  0  0  0  0  0  0  0
   -4.4888   -1.8631    0.7972 H   0  0  0  0  0  0  0  0  0  0  0  0
   -5.2870    0.0674    2.1094 H   0  0  0  0  0  0  0  0  0  0  0  0
   -1.4261   -3.7801   -0.8946 H   0  0  0  0  0  0  0  0  0  0  0  0
   -2.5971   -3.5010    0.3409 H   0  0  0  0  0  0  0  0  0  0  0  0
    0.0850   -1.1817   -0.6582 H   0  0  0  0  0  0  0  0  0  0  0  0
    0.5653   -0.6049    1.7900 H   0  0  0  0  0  0  0  0  0  0  0  0
    1.6239   -2.0035    1.8680 H   0  0  0  0  0  0  0  0  0  0  0  0
    1.0394    1.0482   -0.3390 H   0  0  0  0  0  0  0  0  0  0  0  0
    3.9176   -1.5458    1.5762 H   0  0  0  0  0  0  0  0  0  0  0  0
   -1.3788    4.4989   -0.7551 H   0  0  0  0  0  0  0  0  0  0  0  0
    2.8393    2.4589   -1.1437 H   0  0  0  0  0  0  0  0  0  0  0  0
    5.7264   -0.0895    0.7896 H   0  0  0  0  0  0  0  0  0  0  0  0
    1.5325   -3.8015    0.0398 H   0  0  0  0  0  0  0  0  0  0  0  0
    0.6794   -3.4652   -1.4746 H   0  0  0  0  0  0  0  0  0  0  0  0
    2.1379   -2.5702   -1.0805 H   0  0  0  0  0  0  0  0  0  0  0  0
    6.2724    3.6956   -1.4835 H   0  0  0  0  0  0  0  0  0  0  0  0
    4.7235    3.9299   -0.6841 H   0  0  0  0  0  0  0  0  0  0  0  0
    4.8286    3.0441   -2.2543 H   0  0  0  0  0  0  0  0  0  0  0  0
    3.6387    0.2510    0.2283 H   0  0  0  0  0  0  0  0  0  0  0  0
   -3.6416   -0.2387   -0.4309 H   0  0  0  0  0  0  0  0  0  0  0  0
    0.7286   -1.0184   -1.0169 H   0  0  0  0  0  0  0  0  0  0  0  0
   -0.7292    1.0136    0.8305 H   0  0  0  0  0  0  0  0  0  0  0  0
   -8.2428   -0.4209   -0.1768 H   0  0  0  0  0  0  0  0  0  0  0  0
   -1.1946   -2.8771   -0.6031 H   0  0  0  0  0  0  0  0  0  0  0  0
   -6.7390    2.3024    0.4165 H   0  0  0  0  0  0  0  0  0  0  0  0
    0.1409   -1.2018   -2.2327 H   0  0  0  0  0  0  0  0  0  0  0  0
   -3.2190    1.1086    0.3692 H   0  0  0  0  0  0  0  0  0  0  0  0
   -1.8428   -1.2591    1.0397 H   0  0  0  0  0  0  0  0  0  0  0  0
   -4.5318   -2.9475   -0.2264 H   0  0  0  0  0  0  0  0  0  0  0  0
   -6.8702   -2.2077   -0.1844 H   0  0  0  0  0  0  0  0  0  0  0  0
   -1.8923   -0.6393   -1.9803 H   0  0  0  0  0  0  0  0  0  0  0  0
   -1.2725    0.4523   -0.7560 H   0  0  0  0  0  0  0  0  0  0  0  0
    1.0809    0.4590   -0.7904 H   0  0  0  0  0  0  0  0  0  0  0  0
    2.4170   -1.2211   -2.1099 H   0  0  0  0  0  0  0  0  0  0  0  0
    2.3808   -2.3189   -0.7556 H   0  0  0  0  0  0  0  0  0  0  0  0
    4.3061   -2.3216    0.6102 H   0  0  0  0  0  0  0  0  0  0  0  0
    3.3021    1.2818   -1.5346 H   0  0  0  0  0  0  0  0  0  0  0  0
   -5.5501    4.1873    0.5955 H   0  0  0  0  0  0  0  0  0  0  0  0
    6.3664   -1.2414    1.4275 H   0  0  0  0  0  0  0  0  0  0  0  0
    5.3241    2.3458   -0.7138 H   0  0  0  0  0  0  0  0  0  0  0  0
    1.8019   -0.3298    1.5103 H   0  0  0  0  0  0  0  0  0  0  0  0
    0.0645   -0.1513    1.3635 H   0  0  0  0  0  0  0  0  0  0  0  0
    0.7960   -1.7666    1.3122 H   0  0  0  0  0  0  0  0  0  0  0  0
    8.6361    2.5220    0.8316 H   0  0  0  0  0  0  0  0  0  0  0  0
    7.7349    2.3313   -0.6798 H   0  0  0  0  0  0  0  0  0  0  0  0
    6.9845    3.1558    0.7454 H   0  0  0  0  0  0  0  0  0  0  0  0
    0.7387   -0.2774    0.0000 H   0  0  0  0  0  0  0  0  0  0  0  0
   -0.7802   -0.1182    0.0000 H   0  0  0  0  0  0  0  0  0  0  0  0
  2 10  1  0
  3 12  1  0
  4 19  1  0
  4 26  1  0
  5 22  2  0
  6  9  1  0
  6 22  1  0
  7 15  1  0
  7 17  1  0
  8 11  2  0
  8 12  1  0
  8 13  1  0
  9 10  2  0
  9 11  1  0
 10 14  1  0
 12 15  1  0
 13 14  2  0
 16 18  1  0
 16 20  2  0
 16 21  1  0
 17 18  1  0
 17 25  1  0
 19 23  2  0
 19 24  1  0
 20 23  1  0
 21 24  2  0
 27 31  1  0
 28 32  1  0
 29 31  2  0
 30 32  2  0
 31 33  1  0
 32 34  1  0
 33 34  2  0
 35 43  1  0
 36 45  1  0
 37 52  1  0
 37 59  1  0
 38 55  2  0
 39 42  1  0
 39 55  1  0
 40 48  1  0
 40 50  1  0
 41 44  2  0
 41 45  1  0
 41 46  1  0
 42 43  2  0
 42 44  1  0
 43 47  1  0
 45 48  1  0
 46 47  2  0
 49 51  1  0
 49 53  2  0
 49 54  1  0
 50 51  1  0
 50 58  1  0
 52 56  2  0
 52 57  1  0
 53 56  1  0
 54 57  2  0
  1 61  1  0
  1 62  1  0
  2 63  1  0
  3 64  1  0
  6 65  1  0
  7 66  1  0
 11 67  1  0
 12 68  1  6
 13 69  1  0
 14 70  1  0
 15 71  1  0
 15 72  1  0
 17 73  1  6
 18 74  1  0
 18 75  1  0
 20 76  1  0
 21 77  1  0
 22 78  1  0
 23 79  1  0
 24 80  1  0
 25 81  1  0
 25 82  1  0
 25 83  1  0
 26 84  1  0
 26 85  1  0
 26 86  1  0
 27 87  1  0
 28 88  1  0
 33 89  1  0
 34 90  1  0
 35 91  1  0
 36 92  1  0
 39 93  1  0
 40 94  1  0
 44 95  1  0
 45 96  1  1
 46 97  1  0
 47 98  1  0
 48 99  1  0
 48100  1  0
 50101  1  1
 51102  1  0
 51103  1  0
 53104  1  0
 54105  1  0
 55106  1  0
 56107  1  0
 57108  1  0
 58109  1  0
 58110  1  0
 58111  1  0
 59112  1  0
 59113  1  0
 59114  1  0
 60115  1  0
 60116  1  0
M  END
$$$$
