
     RDKit          3D

116115  0  0  0  0  0  0  0  0999 V2000
   -0.0247    0.3962    0.0000 O   0  0  0  0  0  0  0  0  0  0  0  0
    7.3649    1.1322    1.1731 O   0  0  0  0  0  0  0  0  0  0  0  0
    2.0598    1.6579   -2.3286 O   0  0  0  0  0  0  0  0  0  0  0  0
   -7.3085   -0.5029    1.5639 O   0  0  0  0  0  0  0  0  0  0  0  0
    5.1630   -3.2579    0.2559 O   0  0  0  0  0  0  0  0  0  0  0  0
    6.3745   -1.3476    0.8885 N   0  0  0  0  0  0  0  0  0  0  0  0
    0.0220   -0.0187   -1.3533 N   0  0  0  0  0  0  0  0  0  0  0  0
    3.7467    0.7016   -0.8493 C   0  0  0  0  0  0  0  0  0  0  0  0
    5.6307   -0.2778    0.3565 C   0  0  0  0  0  0  0  0  0  0  0  0
    6.1627    1.0041    0.5240 C   0  0  0  0  0  0  0  0  0  0  0  0
    4.4333   -0.4197   -0.3441 C   0  0  0  0  0  0  0  0  0  0  0  0
    2.4328    0.4949   -1.5775 C   0  0  1  0  0  0  0  0  0  0  0  0
    4.3074    1.9729   -0.6623 C   0  0  0  0  0  0  0  0  0  0  0  0
    5.5193    2.1289    0.0155 C   0  0  0  0  0  0  0  0  0  0  0  0
    1.2836    0.1484   -0.6009 C   0  0  0  0  0  0  0  0  0  0  0  0
   -3.7128   -0.0930   -0.5404 C   0  0  0  0  0  0  0  0  0  0  0  0
   -1.1426   -0.2495   -0.4749 C   0  0  1  0  0  0  0  0  0  0  0  0
   -2.4166   -0.0021   -1.3223 C   0  0  0  0  0  0  0  0  0  0  0  0
   -6.1221   -0.2866    0.9183 C   0  0  0  0  0  0  0  0  0  0  0  0
   -4.5465   -1.2091   -0.6824 C   0  0  0  0  0  0  0  0  0  0  0  0
   -4.0946    0.9196    0.3497 C   0  0  0  0  0  0  0  0  0  0  0  0
    6.0989   -2.6929    0.8041 C   0  0  0  0  0  0  0  0  0  0  0  0
   -5.7398   -1.2992    0.0388 C   0  0  0  0  0  0  0  0  0  0  0  0
   -5.2894    0.8204    1.0805 C   0  0  0  0  0  0  0  0  0  0  0  0
   -1.1319   -1.6738    0.1010 C   0  0  0  0  0  0  0  0  0  0  0  0
   -7.9028    0.6417    2.1570 C   0  0  0  0  0  0  0  0  0  0  0  0
    2.4212   -0.2171    0.4339 O   0  0  0  0  0  0  0  0  0  0  0  0
   -2.4265    0.2237   -0.3813 O   0  0  0  0  0  0  0  0  0  0  0  0
    2.2453    1.9358   -0.1596 O   0  0  0  0  0  0  0  0  0  0  0  0
   -2.2370   -1.9433    0.1451 O   0  0  0  0  0  0  0  0  0  0  0  0
    1.7154    0.8603    0.0569 C   0  0  0  0  0  0  0  0  0  0  0  0
   -1.7158   -0.8576   -0.0296 C   0  0  0  0  0  0  0  0  0  0  0  0
    0.2775    0.6007   -0.0948 C   0  0  0  0  0  0  0  0  0  0  0  0
   -0.2782   -0.6012    0.1150 C   0  0  0  0  0  0  0  0  0  0  0  0
    6.0335    2.2016   -2.0680 O   0  0  0  0  0  0  0  0  0  0  0  0
    2.0603    0.3344    2.4292 O   0  0  0  0  0  0  0  0  0  0  0  0
   -7.5386   -0.9321    0.0227 O   0  0  0  0  0  0  0  0  0  0  0  0
    8.3085    1.2852   -1.7427 O   0  0  0  0  0  0  0  0  0  0  0  0
    7.0786   -0.0655   -0.3006 N   0  0  0  0  0  0  0  0  0  0  0  0
    0.3559   -0.3912    0.1349 N   0  0  0  0  0  0  0  0  0  0  0  0
    3.4666    0.1301    0.4981 C   0  0  0  0  0  0  0  0  0  0  0  0
    5.7525    0.4265   -0.3838 C   0  0  0  0  0  0  0  0  0  0  0  0
    5.2777    1.4616   -1.2049 C   0  0  0  0  0  0  0  0  0  0  0  0
    4.8269   -0.2264    0.4607 C   0  0  0  0  0  0  0  0  0  0  0  0
    2.5247   -0.5866    1.4424 C   0  0  2  0  0  0  0  0  0  0  0  0
    3.0418    1.1781   -0.3265 C   0  0  0  0  0  0  0  0  0  0  0  0
    3.9335    1.8313   -1.1706 C   0  0  0  0  0  0  0  0  0  0  0  0
    1.3182   -1.3095    0.7892 C   0  0  0  0  0  0  0  0  0  0  0  0
   -3.4329   -0.2920   -0.4593 C   0  0  0  0  0  0  0  0  0  0  0  0
   -1.0583   -0.6684    0.4753 C   0  0  2  0  0  0  0  0  0  0  0  0
   -1.9514   -0.0948   -0.6465 C   0  0  0  0  0  0  0  0  0  0  0  0
   -6.2082   -0.6331   -0.1109 C   0  0  0  0  0  0  0  0  0  0  0  0
   -4.0098   -1.5606   -0.5815 C   0  0  0  0  0  0  0  0  0  0  0  0
   -4.2566    0.7973   -0.1486 C   0  0  0  0  0  0  0  0  0  0  0  0
    8.2061    0.3616   -0.9526 C   0  0  0  0  0  0  0  0  0  0  0  0
   -5.3862   -1.7256   -0.4022 C   0  0  0  0  0  0  0  0  0  0  0  0
   -5.6338    0.6281    0.0302 C   0  0  0  0  0  0  0  0  0  0  0  0
   -1.3755   -0.0256    1.8260 C   0  0  0  0  0  0  0  0  0  0  0  0
   -8.4393    0.1659    0.1290 C   0  0  0  0  0  0  0  0  0  0  0  0
   -0.0554    0.3923    0.0000 O   0  0  0  0  0  0  0  0  0  0  0  0
   -0.7511   -0.2460    0.0000 H   0  0  0  0  0  0  0  0  0  0  0  0
    0.7758   -0.1502    0.0000 H   0  0  0  0  0  0  0  0  0  0  0  0
    7.7014    2.0241    1.0003 H   0  0  0  0  0  0  0  0  0  0  0  0
    1.1038    1.5402   -2.4949 H   0  0  0  0  0  0  0  0  0  0  0  0
    7.2241   -1.0536    1.3676 H   0  0  0  0  0  0  0  0  0  0  0  0
    0.1168   -0.8137   -1.9941 H   0  0  0  0  0  0  0  0  0  0  0  0
    4.0044   -1.4052   -0.4964 H   0  0  0  0  0  0  0  0  0  0  0  0
    2.5616   -0.3155   -2.3067 H   0  0  0  0  0  0  0  0  0  0  0  0
    3.8074    2.8506   -1.0677 H   0  0  0  0  0  0  0  0  0  0  0  0
    5.9400    3.1203    0.1427 H   0  0  0  0  0  0  0  0  0  0  0  0
    1.5333   -0.7622   -0.0475 H   0  0  0  0  0  0  0  0  0  0  0  0
    1.1618    0.9713    0.1147 H   0  0  0  0  0  0  0  0  0  0  0  0
   -1.1208    0.4772    0.3497 H   0  0  0  0  0  0  0  0  0  0  0  0
   -2.4429   -0.7208   -2.1504 H   0  0  0  0  0  0  0  0  0  0  0  0
   -2.3616    0.9903   -1.7907 H   0  0  0  0  0  0  0  0  0  0  0  0
   -4.2802   -2.0141   -1.3671 H   0  0  0  0  0  0  0  0  0  0  0  0
   -3.4644    1.7955    0.5065 H   0  0  0  0  0  0  0  0  0  0  0  0
    6.8951   -3.2619    1.3296 H   0  0  0  0  0  0  0  0  0  0  0  0
   -6.3722   -2.1750   -0.0853 H   0  0  0  0  0  0  0  0  0  0  0  0
   -5.5404    1.6148    1.7711 H   0  0  0  0  0  0  0  0  0  0  0  0
   -1.1874   -2.4246   -0.6957 H   0  0  0  0  0  0  0  0  0  0  0  0
   -1.9855   -1.8272    0.7684 H   0  0  0  0  0  0  0  0  0  0  0  0
   -0.2292   -1.8721    0.6904 H   0  0  0  0  0  0  0  0  0  0  0  0
   -8.9028    0.3577    2.4919 H   0  0  0  0  0  0  0  0  0  0  0  0
   -8.0217    1.4565    1.4363 H   0  0  0  0  0  0  0  0  0  0  0  0
   -7.3322    0.9629    3.0362 H   0  0  0  0  0  0  0  0  0  0  0  0
    3.3484    0.0985    0.4740 H   0  0  0  0  0  0  0  0  0  0  0  0
   -3.3493   -0.0999   -0.4507 H   0  0  0  0  0  0  0  0  0  0  0  0
   -0.3084    1.4664   -0.3847 H   0  0  0  0  0  0  0  0  0  0  0  0
    0.3074   -1.4664    0.4050 H   0  0  0  0  0  0  0  0  0  0  0  0
    6.9679    1.9396   -1.9793 H   0  0  0  0  0  0  0  0  0  0  0  0
    1.4054    0.8965    1.9664 H   0  0  0  0  0  0  0  0  0  0  0  0
    7.2286   -0.8265    0.3558 H   0  0  0  0  0  0  0  0  0  0  0  0
    0.4850   -0.4769   -0.8787 H   0  0  0  0  0  0  0  0  0  0  0  0
    5.1661   -1.0278    1.1124 H   0  0  0  0  0  0  0  0  0  0  0  0
    3.0951   -1.3461    1.9891 H   0  0  0  0  0  0  0  0  0  0  0  0
    2.0093    1.5101   -0.3239 H   0  0  0  0  0  0  0  0  0  0  0  0
    3.5871    2.6488   -1.8020 H   0  0  0  0  0  0  0  0  0  0  0  0
    0.8306   -1.8819    1.5780 H   0  0  0  0  0  0  0  0  0  0  0  0
    1.6645   -2.0349    0.0449 H   0  0  0  0  0  0  0  0  0  0  0  0
   -1.2242   -1.7479    0.5267 H   0  0  0  0  0  0  0  0  0  0  0  0
   -1.7418    0.9722   -0.7754 H   0  0  0  0  0  0  0  0  0  0  0  0
   -1.6790   -0.5613   -1.6024 H   0  0  0  0  0  0  0  0  0  0  0  0
   -3.3999   -2.4265   -0.8276 H   0  0  0  0  0  0  0  0  0  0  0  0
   -3.8257    1.7880   -0.0317 H   0  0  0  0  0  0  0  0  0  0  0  0
    9.0842   -0.2389   -0.6546 H   0  0  0  0  0  0  0  0  0  0  0  0
   -5.8330   -2.7148   -0.4865 H   0  0  0  0  0  0  0  0  0  0  0  0
   -6.2228    1.5035    0.2805 H   0  0  0  0  0  0  0  0  0  0  0  0
   -0.7325   -0.4256    2.6176 H   0  0  0  0  0  0  0  0  0  0  0  0
   -2.4140   -0.2172    2.1213 H   0  0  0  0  0  0  0  0  0  0  0  0
   -1.2318    1.0627    1.7863 H   0  0  0  0  0  0  0  0  0  0  0  0
   -8.3016    0.7056    1.0745 H   0  0  0  0  0  0  0  0  0  0  0  0
   -8.3538    0.8536   -0.7250 H   0  0  0  0  0  0  0  0  0  0  0  0
   -9.4581   -0.2444    0.1259 H   0  0  0  0  0  0  0  0  0  0  0  0
    0.7859   -0.0900    0.0000 H   0  0  0  0  0  0  0  0  0  0  0  0
   -0.7305   -0.3023    0.0000 H   0  0  0  0  0  0  0  0  0  0  0  0
  2 10  1  0
  3 12  1  0
  4 19  1  0
  4 26  1  0
  5 22  2  0
  6  9  1  0
  6 22  1  0
  7 15  1  0
  7 17  1  0
  8 11  2  0
  8 12  1  0
  8 13  1  0
  9 10  2  0
  9 11  1  0
 10 14  1  0
 12 15  1  0
 13 14  2  0
 16 18  1  0
 16 20  2  0
 16 21  1  0
 17 18  1  0
 17 25  1  0
 19 23  2  0
 19 24  1  0
 20 23  1  0
 21 24  2  0
 27 31  1  0
 28 32  1  0
 29 31  2  0
 30 32  2  0
 31 33  1  0
 32 34  1  0
 33 34  2  0
 35 43  1  0
 36 45  1  0
 37 52  1  0
 37 59  1  0
 38 55  2  0
 39 42  1  0
 39 55  1  0
 40 48  1  0
 40 50  1  0
 41 44  2  0
 41 45  1  0
 41 46  1  0
 42 43  2  0
 42 44  1  0
 43 47  1  0
 45 48  1  0
 46 47  2  0
 49 51  1  0
 49 53  2  0
 49 54  1  0
 50 51  1  0
 50 58  1  0
 52 56  2  0
 52 57  1  0
 53 56  1  0
 54 57  2  0
  1 61  1  0
  1 62  1  0
  2 63  1  0
  3 64  1  0
  6 65  1  0
  7 66  1  0
 11 67  1  0
 12 68  1  6
 13 69  1  0
 14 70  1  0
 15 71  1  0
 15 72  1  0
 17 73  1  1
 18 74  1  0
 18 75  1  0
 20 76  1  0
 21 77  1  0
 22 78  1  0
 23 79  1  0
 24 80  1  0
 25 81  1  0
 25 82  1  0
 25 83  1  0
 26 84  1  0
 26 85  1  0
 26 86  1  0
 27 87  1  0
 28 88  1  0
 33 89  1  0
 34 90  1  0
 35 91  1  0
 36 92  1  0
 39 93  1  0
 40 94  1  0
 44 95  1  0
 45 96  1  1
 46 97  1  0
 47 98  1  0
 48 99  1  0
 48100  1  0
 50101  1  1
 51102  1  0
 51103  1  0
 53104  1  0
 54105  1  0
 55106  1  0
 56107  1  0
 57108  1  0
 58109  1  0
 58110  1  0
 58111  1  0
 59112  1  0
 59113  1  0
 59114  1  0
 60115  1  0
 60116  1  0
M  END
$$$$
