
     RDKit          3D

104110  0  0  0  0  0  0  0  0999 V2000
   -5.7368   -2.7759    1.2663 C   0  0  0  0  0  0  0  0  0  0  0  0
   -5.8697   -3.4926    2.5959 C   0  0  0  0  0  0  0  0  0  0  0  0
   -4.4420   -3.6403    3.1322 C   0  0  0  0  0  0  0  0  0  0  0  0
   -3.5814   -2.6696    2.3205 C   0  0  2  0  0  0  0  0  0  0  0  0
   -4.5730   -1.8121    1.5060 C   0  0  2  0  0  0  0  0  0  0  0  0
   -2.7884   -3.4514    1.4095 O   0  0  0  0  0  0  0  0  0  0  0  0
   -1.6134   -2.9098    1.0273 C   0  0  0  0  0  0  0  0  0  0  0  0
   -1.1599   -3.5878   -0.0665 N   0  0  0  0  0  0  0  0  0  0  0  0
   -1.0653   -1.9386    1.5310 O   0  0  0  0  0  0  0  0  0  0  0  0
   -0.0805   -3.0643   -0.9118 C   0  0  2  0  0  0  0  0  0  0  0  0
   -0.7134   -1.9058   -1.7340 C   0  0  0  0  0  0  0  0  0  0  0  0
    0.6137   -4.1743   -1.7605 C   0  0  0  0  0  0  0  0  0  0  0  0
    1.4500   -5.0694   -0.8218 C   0  0  0  0  0  0  0  0  0  0  0  0
   -0.3769   -5.0826   -2.5093 C   0  0  0  0  0  0  0  0  0  0  0  0
    1.5632   -3.5208   -2.7876 C   0  0  0  0  0  0  0  0  0  0  0  0
   -1.4746   -2.0760   -2.6821 O   0  0  0  0  0  0  0  0  0  0  0  0
   -0.5173   -0.6477   -1.1565 N   0  0  0  0  0  0  0  0  0  0  0  0
   -1.4204    1.5830   -1.3002 C   0  0  1  0  0  0  0  0  0  0  0  0
   -1.7363    0.1371   -0.9141 C   0  0  0  0  0  0  0  0  0  0  0  0
    0.4564    0.2317   -1.8245 C   0  0  1  0  0  0  0  0  0  0  0  0
   -0.3782    1.3759   -2.4082 C   0  0  0  0  0  0  0  0  0  0  0  0
   -2.6125    2.2531   -1.7128 O   0  0  0  0  0  0  0  0  0  0  0  0
   -2.5851    3.5842   -1.4027 C   0  0  0  0  0  0  0  0  0  0  0  0
   -1.4516    4.2539   -1.7137 N   0  0  0  0  0  0  0  0  0  0  0  0
   -1.4256    5.5582   -1.4054 C   0  0  0  0  0  0  0  0  0  0  0  0
   -2.5264    6.1925   -0.7798 C   0  0  0  0  0  0  0  0  0  0  0  0
   -3.6369    5.5013   -0.4632 N   0  0  0  0  0  0  0  0  0  0  0  0
   -3.6814    4.1791   -0.8009 C   0  0  0  0  0  0  0  0  0  0  0  0
   -2.4288    7.5502   -0.4612 C   0  0  0  0  0  0  0  0  0  0  0  0
   -1.2702    8.2834   -0.7303 C   0  0  0  0  0  0  0  0  0  0  0  0
   -0.2030    7.6605   -1.3687 C   0  0  0  0  0  0  0  0  0  0  0  0
   -0.2827    6.2970   -1.6880 C   0  0  0  0  0  0  0  0  0  0  0  0
   -4.9001    3.3616   -0.4019 C   0  0  0  0  0  0  0  0  0  0  0  0
   -4.6255    2.5558    0.8520 C   0  0  0  0  0  0  0  0  0  0  0  0
   -4.5298    1.2149    0.9214 C   0  0  0  0  0  0  0  0  0  0  0  0
   -4.2326    0.4529    2.1716 C   0  0  0  0  0  0  0  0  0  0  0  0
   -5.0728   -0.6909    2.2433 O   0  0  0  0  0  0  0  0  0  0  0  0
   -5.9810    4.1619   -0.1244 F   0  0  0  0  0  0  0  0  0  0  0  0
   -5.3315    2.5408   -1.4087 F   0  0  0  0  0  0  0  0  0  0  0  0
    1.4604    0.7700   -0.7919 C   0  0  0  0  0  0  0  0  0  0  0  0
    1.6419   -0.0309    0.3344 N   0  0  0  0  0  0  0  0  0  0  0  0
    2.1622    1.7726   -0.9698 O   0  0  0  0  0  0  0  0  0  0  0  0
    2.5144    0.3894    1.4340 C   0  0  2  0  0  0  0  0  0  0  0  0
    1.9288    0.1699    2.8405 C   0  0  0  0  0  0  0  0  0  0  0  0
    2.0738    1.5688    2.3078 C   0  0  1  0  0  0  0  0  0  0  0  0
    4.0087    0.1365    1.2745 C   0  0  0  0  0  0  0  0  0  0  0  0
    4.5015    0.1560   -0.0348 N   0  0  0  0  0  0  0  0  0  0  0  0
    4.7263   -0.0576    2.2431 O   0  0  0  0  0  0  0  0  0  0  0  0
    5.3881   -1.1328   -0.6067 S   0  0  0  0  0  0  0  0  0  0  0  0
    7.1509   -0.8680   -0.3447 C   0  0  0  0  0  0  0  0  0  0  0  0
    4.9924   -2.2979    0.1556 O   0  0  0  0  0  0  0  0  0  0  0  0
    5.1699   -1.1469   -2.0398 O   0  0  0  0  0  0  0  0  0  0  0  0
    7.9432   -2.1219   -0.4119 C   0  0  0  0  0  0  0  0  0  0  0  0
    7.5473    0.2575    0.5977 C   0  0  0  0  0  0  0  0  0  0  0  0
    7.6720    0.4350   -0.8899 C   0  0  0  0  0  0  0  0  0  0  0  0
    3.0791    2.4957    2.8715 C   0  0  0  0  0  0  0  0  0  0  0  0
    2.4352    3.4269    3.6001 F   0  0  0  0  0  0  0  0  0  0  0  0
    3.7001    3.1653    1.8622 F   0  0  0  0  0  0  0  0  0  0  0  0
   -6.6630   -2.2609    0.9944 H   0  0  0  0  0  0  0  0  0  0  0  0
   -5.4830   -3.4840    0.4633 H   0  0  0  0  0  0  0  0  0  0  0  0
   -6.3803   -4.4568    2.4971 H   0  0  0  0  0  0  0  0  0  0  0  0
   -6.4742   -2.8703    3.2758 H   0  0  0  0  0  0  0  0  0  0  0  0
   -4.4509   -3.4014    4.2104 H   0  0  0  0  0  0  0  0  0  0  0  0
   -4.1029   -4.6857    3.0328 H   0  0  0  0  0  0  0  0  0  0  0  0
   -2.9564   -2.0944    3.0055 H   0  0  0  0  0  0  0  0  0  0  0  0
   -4.1604   -1.4997    0.5416 H   0  0  0  0  0  0  0  0  0  0  0  0
   -1.8423   -4.1920   -0.5031 H   0  0  0  0  0  0  0  0  0  0  0  0
    0.6685   -2.6340   -0.2393 H   0  0  0  0  0  0  0  0  0  0  0  0
    1.9633   -5.8471   -1.4124 H   0  0  0  0  0  0  0  0  0  0  0  0
    0.8246   -5.5694   -0.0685 H   0  0  0  0  0  0  0  0  0  0  0  0
    2.2116   -4.4622   -0.3041 H   0  0  0  0  0  0  0  0  0  0  0  0
    0.1493   -5.8113   -3.1414 H   0  0  0  0  0  0  0  0  0  0  0  0
   -1.0514   -4.5214   -3.1632 H   0  0  0  0  0  0  0  0  0  0  0  0
   -0.9996   -5.6703   -1.8239 H   0  0  0  0  0  0  0  0  0  0  0  0
    2.2011   -2.7834   -2.2918 H   0  0  0  0  0  0  0  0  0  0  0  0
    0.9958   -3.0139   -3.5845 H   0  0  0  0  0  0  0  0  0  0  0  0
    2.2042   -4.2827   -3.2570 H   0  0  0  0  0  0  0  0  0  0  0  0
   -0.9772    2.0590   -0.4220 H   0  0  0  0  0  0  0  0  0  0  0  0
   -1.9532    0.0794    0.1520 H   0  0  0  0  0  0  0  0  0  0  0  0
   -2.5995   -0.2586   -1.4544 H   0  0  0  0  0  0  0  0  0  0  0  0
    1.0123   -0.3030   -2.6022 H   0  0  0  0  0  0  0  0  0  0  0  0
   -0.8762    1.0745   -3.3553 H   0  0  0  0  0  0  0  0  0  0  0  0
    0.2056    2.2836   -2.5993 H   0  0  0  0  0  0  0  0  0  0  0  0
   -3.2815    8.0335    0.0169 H   0  0  0  0  0  0  0  0  0  0  0  0
   -1.2242    9.3279   -0.4472 H   0  0  0  0  0  0  0  0  0  0  0  0
    0.6999    8.2190   -1.5832 H   0  0  0  0  0  0  0  0  0  0  0  0
    0.5696    5.8236   -2.1556 H   0  0  0  0  0  0  0  0  0  0  0  0
   -4.5243    3.1574    1.7515 H   0  0  0  0  0  0  0  0  0  0  0  0
   -4.6874    0.6472    0.0118 H   0  0  0  0  0  0  0  0  0  0  0  0
   -3.1798    0.1621    2.2073 H   0  0  0  0  0  0  0  0  0  0  0  0
   -4.4377    1.0608    3.0556 H   0  0  0  0  0  0  0  0  0  0  0  0
    0.9458   -0.7483    0.5281 H   0  0  0  0  0  0  0  0  0  0  0  0
    0.9328   -0.2433    2.9328 H   0  0  0  0  0  0  0  0  0  0  0  0
    2.5971   -0.1824    3.6186 H   0  0  0  0  0  0  0  0  0  0  0  0
    1.1969    2.1095    1.9759 H   0  0  0  0  0  0  0  0  0  0  0  0
    3.8596    0.5107   -0.7374 H   0  0  0  0  0  0  0  0  0  0  0  0
    7.7726   -2.6314   -1.3653 H   0  0  0  0  0  0  0  0  0  0  0  0
    7.6932   -2.7881    0.4119 H   0  0  0  0  0  0  0  0  0  0  0  0
    9.0120   -1.9283   -0.3513 H   0  0  0  0  0  0  0  0  0  0  0  0
    8.4555    0.1387    1.1882 H   0  0  0  0  0  0  0  0  0  0  0  0
    6.7889    0.8526    1.0991 H   0  0  0  0  0  0  0  0  0  0  0  0
    6.9805    1.1123   -1.3793 H   0  0  0  0  0  0  0  0  0  0  0  0
    8.6652    0.4374   -1.3118 H   0  0  0  0  0  0  0  0  0  0  0  0
    3.8247    2.0282    3.5130 H   0  0  0  0  0  0  0  0  0  0  0  0
  1  2  1  0
  2  3  1  0
  4  3  1  0
  4  5  1  0
  5  1  1  0
  4  6  1  0
  6  7  1  0
  7  8  1  0
  7  9  2  0
  8 10  1  0
 10 11  1  0
 10 12  1  0
 12 13  1  0
 12 14  1  0
 12 15  1  0
 11 16  2  0
 11 17  1  0
 19 17  1  0
 17 20  1  0
 18 19  1  0
 20 21  1  0
 18 21  1  0
 18 22  1  0
 22 23  1  0
 23 24  2  0
 28 23  1  0
 24 25  1  0
 26 27  1  0
 27 28  2  0
 26 29  1  0
 25 26  2  0
 32 25  1  0
 29 30  2  0
 30 31  1  0
 31 32  2  0
 28 33  1  0
 33 34  1  0
 34 35  2  0
 35 36  1  0
 36 37  1  0
  5 37  1  0
 33 38  1  0
 33 39  1  0
 20 40  1  0
 40 41  1  0
 40 42  2  0
 43 41  1  6
 43 44  1  0
 45 43  1  0
 44 45  1  0
 43 46  1  0
 46 47  1  0
 46 48  2  0
 47 49  1  0
 49 50  1  0
 49 51  2  0
 49 52  2  0
 50 53  1  0
 50 54  1  0
 55 50  1  0
 54 55  1  0
 45 56  1  0
 56 57  1  0
 56 58  1  0
  1 59  1  0
  1 60  1  0
  2 61  1  0
  2 62  1  0
  3 63  1  0
  3 64  1  0
  4 65  1  1
  5 66  1  6
  8 67  1  0
 10 68  1  1
 13 69  1  0
 13 70  1  0
 13 71  1  0
 14 72  1  0
 14 73  1  0
 14 74  1  0
 15 75  1  0
 15 76  1  0
 15 77  1  0
 18 78  1  1
 19 79  1  0
 19 80  1  0
 20 81  1  6
 21 82  1  0
 21 83  1  0
 29 84  1  0
 30 85  1  0
 31 86  1  0
 32 87  1  0
 34 88  1  0
 35 89  1  0
 36 90  1  0
 36 91  1  0
 41 92  1  0
 44 93  1  0
 44 94  1  0
 45 95  1  6
 47 96  1  0
 53 97  1  0
 53 98  1  0
 53 99  1  0
 54100  1  0
 54101  1  0
 55102  1  0
 55103  1  0
 56104  1  0
M  END
$$$$
