
     RDKit          3D

 22 22  0  0  0  0  0  0  0  0999 V2000
    2.9699   -0.7830    0.4637 N   0  0  0  0  0  0  0  0  0  0  0  0
    3.6644    0.4644    0.2354 N   0  0  0  0  0  0  0  0  0  0  0  0
   -0.6696    0.0249   -0.4670 C   0  0  0  0  0  0  0  0  0  0  0  0
    1.5275   -0.5269    0.6368 C   0  0  0  0  0  0  0  0  0  0  0  0
    0.8149   -0.1613   -0.6739 C   0  0  0  0  0  0  0  0  0  0  0  0
   -1.1833    1.2791   -0.1107 C   0  0  0  0  0  0  0  0  0  0  0  0
   -1.5488   -1.0582   -0.5998 C   0  0  0  0  0  0  0  0  0  0  0  0
   -2.9178   -0.8867   -0.3889 C   0  0  0  0  0  0  0  0  0  0  0  0
   -2.5526    1.4483    0.0996 C   0  0  0  0  0  0  0  0  0  0  0  0
   -3.4193    0.3659   -0.0401 C   0  0  0  0  0  0  0  0  0  0  0  0
    3.0904   -1.4264   -0.3262 H   0  0  0  0  0  0  0  0  0  0  0  0
    4.6691    0.2992    0.1167 H   0  0  0  0  0  0  0  0  0  0  0  0
    3.6054    1.0653    1.0643 H   0  0  0  0  0  0  0  0  0  0  0  0
    1.0833   -1.4448    1.0417 H   0  0  0  0  0  0  0  0  0  0  0  0
    1.3652    0.2450    1.4006 H   0  0  0  0  0  0  0  0  0  0  0  0
    1.2343    0.7582   -1.1014 H   0  0  0  0  0  0  0  0  0  0  0  0
    0.9787   -0.9447   -1.4253 H   0  0  0  0  0  0  0  0  0  0  0  0
   -0.5178    2.1319    0.0040 H   0  0  0  0  0  0  0  0  0  0  0  0
   -1.1724   -2.0425   -0.8687 H   0  0  0  0  0  0  0  0  0  0  0  0
   -3.5933   -1.7313   -0.4963 H   0  0  0  0  0  0  0  0  0  0  0  0
   -2.9428    2.4251    0.3730 H   0  0  0  0  0  0  0  0  0  0  0  0
   -4.4854    0.4985    0.1237 H   0  0  0  0  0  0  0  0  0  0  0  0
  2  1  1  0
  3  5  1  0
  4  1  1  0
  5  4  1  0
  6  3  2  0
  7  3  1  0
  8  7  2  0
  9  6  1  0
 10  9  2  0
 10  8  1  0
  1 11  1  0
  2 12  1  0
  2 13  1  0
  4 14  1  0
  4 15  1  0
  5 16  1  0
  5 17  1  0
  6 18  1  0
  7 19  1  0
  8 20  1  0
  9 21  1  0
 10 22  1  0
M  END
$$$$
