
     RDKit          3D

 22 22  0  0  0  0  0  0  0  0999 V2000
    2.2299    0.8135    0.2398 N   0  0  0  0  0  0  0  0  0  0  0  0
    2.8260    1.4157   -0.9286 N   0  0  0  0  0  0  0  0  0  0  0  0
   -0.6639   -0.4462   -0.2716 C   0  0  0  0  0  0  0  0  0  0  0  0
    1.8739   -0.5876   -0.0456 C   0  0  0  0  0  0  0  0  0  0  0  0
    0.6471   -0.7541   -0.9581 C   0  0  0  0  0  0  0  0  0  0  0  0
   -1.1227    0.8743   -0.1807 C   0  0  0  0  0  0  0  0  0  0  0  0
   -1.4316   -1.4720    0.2967 C   0  0  0  0  0  0  0  0  0  0  0  0
   -2.6386   -1.1814    0.9355 C   0  0  0  0  0  0  0  0  0  0  0  0
   -2.3288    1.1637    0.4588 C   0  0  0  0  0  0  0  0  0  0  0  0
   -3.0872    0.1358    1.0157 C   0  0  0  0  0  0  0  0  0  0  0  0
    2.8499    0.8396    1.0552 H   0  0  0  0  0  0  0  0  0  0  0  0
    3.8033    1.1402   -1.0552 H   0  0  0  0  0  0  0  0  0  0  0  0
    2.8251    2.4368   -0.8527 H   0  0  0  0  0  0  0  0  0  0  0  0
    2.7348   -1.1036   -0.4903 H   0  0  0  0  0  0  0  0  0  0  0  0
    1.6783   -1.0872    0.9115 H   0  0  0  0  0  0  0  0  0  0  0  0
    0.7392   -0.1447   -1.8659 H   0  0  0  0  0  0  0  0  0  0  0  0
    0.6191   -1.7931   -1.3126 H   0  0  0  0  0  0  0  0  0  0  0  0
   -0.5313    1.6839   -0.6042 H   0  0  0  0  0  0  0  0  0  0  0  0
   -1.0951   -2.5044    0.2437 H   0  0  0  0  0  0  0  0  0  0  0  0
   -3.2286   -1.9831    1.3711 H   0  0  0  0  0  0  0  0  0  0  0  0
   -2.6729    2.1922    0.5239 H   0  0  0  0  0  0  0  0  0  0  0  0
   -4.0260    0.3618    1.5137 H   0  0  0  0  0  0  0  0  0  0  0  0
  2  1  1  0
  3  5  1  0
  4  1  1  0
  5  4  1  0
  6  3  2  0
  7  3  1  0
  8  7  2  0
  9  6  1  0
 10  9  2  0
 10  8  1  0
  1 11  1  0
  2 12  1  0
  2 13  1  0
  4 14  1  0
  4 15  1  0
  5 16  1  0
  5 17  1  0
  6 18  1  0
  7 19  1  0
  8 20  1  0
  9 21  1  0
 10 22  1  0
M  END
$$$$
