
     RDKit          3D

 22 22  0  0  0  0  0  0  0  0999 V2000
   -3.0310   -0.4605    0.2928 N   0  0  0  0  0  0  0  0  0  0  0  0
   -4.0347    0.5060   -0.0746 N   0  0  0  0  0  0  0  0  0  0  0  0
    0.7763   -0.4266    0.2261 C   0  0  0  0  0  0  0  0  0  0  0  0
   -1.6842    0.0749    0.0432 C   0  0  0  0  0  0  0  0  0  0  0  0
   -0.6206   -0.9424    0.4749 C   0  0  0  0  0  0  0  0  0  0  0  0
    1.4353    0.3345    1.2009 C   0  0  0  0  0  0  0  0  0  0  0  0
    1.4208   -0.6767   -0.9929 C   0  0  0  0  0  0  0  0  0  0  0  0
    2.7044   -0.1815   -1.2280 C   0  0  0  0  0  0  0  0  0  0  0  0
    2.7187    0.8287    0.9636 C   0  0  0  0  0  0  0  0  0  0  0  0
    3.3530    0.5703   -0.2501 C   0  0  0  0  0  0  0  0  0  0  0  0
   -3.1548   -1.3410   -0.2180 H   0  0  0  0  0  0  0  0  0  0  0  0
   -4.0498    1.2936    0.5794 H   0  0  0  0  0  0  0  0  0  0  0  0
   -3.8880    0.9040   -1.0057 H   0  0  0  0  0  0  0  0  0  0  0  0
   -1.5456    1.0090    0.6027 H   0  0  0  0  0  0  0  0  0  0  0  0
   -1.5640    0.3071   -1.0229 H   0  0  0  0  0  0  0  0  0  0  0  0
   -0.7337   -1.1827    1.5402 H   0  0  0  0  0  0  0  0  0  0  0  0
   -0.7573   -1.8892   -0.0639 H   0  0  0  0  0  0  0  0  0  0  0  0
    0.9520    0.5459    2.1524 H   0  0  0  0  0  0  0  0  0  0  0  0
    0.9278   -1.2606   -1.7668 H   0  0  0  0  0  0  0  0  0  0  0  0
    3.1990   -0.3828   -2.1747 H   0  0  0  0  0  0  0  0  0  0  0  0
    3.2238    1.4154    1.7264 H   0  0  0  0  0  0  0  0  0  0  0  0
    4.3527    0.9547   -0.4336 H   0  0  0  0  0  0  0  0  0  0  0  0
  2  1  1  0
  3  5  1  0
  4  1  1  0
  5  4  1  0
  6  3  2  0
  7  3  1  0
  8  7  2  0
  9  6  1  0
 10  9  2  0
 10  8  1  0
  1 11  1  0
  2 12  1  0
  2 13  1  0
  4 14  1  0
  4 15  1  0
  5 16  1  0
  5 17  1  0
  6 18  1  0
  7 19  1  0
  8 20  1  0
  9 21  1  0
 10 22  1  0
M  END
$$$$
