
     RDKit          3D

101102  0  0  0  0  0  0  0  0999 V2000
   -4.6821   -0.3858    0.8437 C   0  0  0  0  0  0  0  0  0  0  0  0
   -3.6327    0.5626    0.5251 N   0  0  0  0  0  0  0  0  0  0  0  0
   -2.9932    0.4125   -0.7864 C   0  0  1  0  0  0  0  0  0  0  0  0
   -1.9854    1.5661   -0.7151 C   0  0  0  0  0  0  0  0  0  0  0  0
   -1.6659    1.7042    0.7808 C   0  0  0  0  0  0  0  0  0  0  0  0
   -2.5017    0.6099    1.4558 C   0  0  2  0  0  0  0  0  0  0  0  0
   -1.7516   -0.7313    1.5393 C   0  0  0  0  0  0  0  0  0  0  0  0
   -1.2978   -1.2653    0.1703 C   0  0  1  0  0  0  0  0  0  0  0  0
   -2.3043   -0.9554   -0.9511 C   0  0  0  0  0  0  0  0  0  0  0  0
   -0.0182   -0.6630   -0.1236 O   0  0  0  0  0  0  0  0  0  0  0  0
    0.8121   -1.3327   -0.9762 C   0  0  0  0  0  0  0  0  0  0  0  0
    0.5197   -2.3864   -1.5260 O   0  0  0  0  0  0  0  0  0  0  0  0
    2.0779   -0.5212   -1.2353 C   0  0  2  0  0  0  0  0  0  0  0  0
    3.1445   -1.3463   -1.9695 C   0  0  0  0  0  0  0  0  0  0  0  0
    3.7937   -2.3049   -1.1362 O   0  0  0  0  0  0  0  0  0  0  0  0
    2.6632    0.1833   -0.0164 C   0  0  0  0  0  0  0  0  0  0  0  0
    3.1562    1.4942   -0.1446 C   0  0  0  0  0  0  0  0  0  0  0  0
    3.7203    2.1499    0.9513 C   0  0  0  0  0  0  0  0  0  0  0  0
    3.8026    1.5077    2.1847 C   0  0  0  0  0  0  0  0  0  0  0  0
    3.3217    0.2070    2.3244 C   0  0  0  0  0  0  0  0  0  0  0  0
    2.7601   -0.4546    1.2309 C   0  0  0  0  0  0  0  0  0  0  0  0
    5.3293   -0.3100    0.5000 C   0  0  0  0  0  0  0  0  0  0  0  0
    4.0207    0.3392    0.5432 N   0  0  0  0  0  0  0  0  0  0  0  0
    3.2475    0.1567   -0.6976 C   0  0  1  0  0  0  0  0  0  0  0  0
    2.6536   -1.2502   -0.5819 C   0  0  0  0  0  0  0  0  0  0  0  0
    2.5751   -1.5154    0.9212 C   0  0  0  0  0  0  0  0  0  0  0  0
    3.1305   -0.2417    1.5644 C   0  0  2  0  0  0  0  0  0  0  0  0
    2.0344    0.8080    1.8257 C   0  0  0  0  0  0  0  0  0  0  0  0
    1.2778    1.2340    0.5558 C   0  0  1  0  0  0  0  0  0  0  0  0
    2.1680    1.2556   -0.6984 C   0  0  0  0  0  0  0  0  0  0  0  0
    0.1875    0.3042    0.3473 O   0  0  0  0  0  0  0  0  0  0  0  0
   -0.9678    0.8151   -0.1735 C   0  0  0  0  0  0  0  0  0  0  0  0
   -1.1390    1.9887   -0.4757 O   0  0  0  0  0  0  0  0  0  0  0  0
   -1.9759   -0.3044   -0.3812 C   0  0  2  0  0  0  0  0  0  0  0  0
   -1.8869   -0.7304   -1.8551 C   0  0  0  0  0  0  0  0  0  0  0  0
   -2.6610   -1.8935   -2.1501 O   0  0  0  0  0  0  0  0  0  0  0  0
   -3.3793    0.0740    0.0738 C   0  0  0  0  0  0  0  0  0  0  0  0
   -4.1494    1.0230   -0.6158 C   0  0  0  0  0  0  0  0  0  0  0  0
   -5.4357    1.3515   -0.1808 C   0  0  0  0  0  0  0  0  0  0  0  0
   -5.9703    0.7367    0.9489 C   0  0  0  0  0  0  0  0  0  0  0  0
   -5.2158   -0.1992    1.6509 C   0  0  0  0  0  0  0  0  0  0  0  0
   -3.9282   -0.5266    1.2189 C   0  0  0  0  0  0  0  0  0  0  0  0
   -0.0657    0.3578    0.1948 S   0  0  0  0  0  0  0  0  0  0  0  0
    0.5415    1.5804   -0.2642 O   0  0  0  0  0  0  0  0  0  0  0  0
   -1.1811   -0.1054   -0.8624 O   0  0  0  0  0  0  0  0  0  0  0  0
    1.0425   -0.7879    0.0133 O   0  0  0  0  0  0  0  0  0  0  0  0
   -0.6399    0.2042    1.5089 O   0  0  0  0  0  0  0  0  0  0  0  0
   -0.0323    0.3964    0.0000 O   0  0  0  0  0  0  0  0  0  0  0  0
   -0.1097    0.3824    0.0000 O   0  0  0  0  0  0  0  0  0  0  0  0
   -5.4943   -0.3077    0.1112 H   0  0  0  0  0  0  0  0  0  0  0  0
   -5.1175   -0.1446    1.8206 H   0  0  0  0  0  0  0  0  0  0  0  0
   -4.3540   -1.4286    0.8683 H   0  0  0  0  0  0  0  0  0  0  0  0
   -3.7033    0.5749   -1.6042 H   0  0  0  0  0  0  0  0  0  0  0  0
   -1.0883    1.3895   -1.3152 H   0  0  0  0  0  0  0  0  0  0  0  0
   -2.4442    2.4966   -1.0728 H   0  0  0  0  0  0  0  0  0  0  0  0
   -1.9897    2.6944    1.1255 H   0  0  0  0  0  0  0  0  0  0  0  0
   -0.5956    1.6231    0.9903 H   0  0  0  0  0  0  0  0  0  0  0  0
   -2.8146    0.9273    2.4559 H   0  0  0  0  0  0  0  0  0  0  0  0
   -0.8814   -0.6125    2.1985 H   0  0  0  0  0  0  0  0  0  0  0  0
   -2.3972   -1.4781    2.0164 H   0  0  0  0  0  0  0  0  0  0  0  0
   -1.1541   -2.3502    0.2584 H   0  0  0  0  0  0  0  0  0  0  0  0
   -1.8108   -0.9887   -1.9323 H   0  0  0  0  0  0  0  0  0  0  0  0
   -3.0699   -1.7419   -0.9646 H   0  0  0  0  0  0  0  0  0  0  0  0
    1.7383    0.2529   -1.9397 H   0  0  0  0  0  0  0  0  0  0  0  0
    2.7066   -1.8882   -2.8157 H   0  0  0  0  0  0  0  0  0  0  0  0
    3.9208   -0.6878   -2.3777 H   0  0  0  0  0  0  0  0  0  0  0  0
    4.3809   -1.8121   -0.5318 H   0  0  0  0  0  0  0  0  0  0  0  0
    3.1044    2.0173   -1.0994 H   0  0  0  0  0  0  0  0  0  0  0  0
    4.0993    3.1653    0.8412 H   0  0  0  0  0  0  0  0  0  0  0  0
    4.2406    2.0191    3.0380 H   0  0  0  0  0  0  0  0  0  0  0  0
    3.3864   -0.2965    3.2865 H   0  0  0  0  0  0  0  0  0  0  0  0
    2.3987   -1.4740    1.3648 H   0  0  0  0  0  0  0  0  0  0  0  0
    5.9397    0.1206   -0.3019 H   0  0  0  0  0  0  0  0  0  0  0  0
    5.8708   -0.1246    1.4340 H   0  0  0  0  0  0  0  0  0  0  0  0
    5.2855   -1.3931    0.3476 H   0  0  0  0  0  0  0  0  0  0  0  0
    3.8595    0.2674   -1.6005 H   0  0  0  0  0  0  0  0  0  0  0  0
    1.6792   -1.3456   -1.0703 H   0  0  0  0  0  0  0  0  0  0  0  0
    3.3198   -1.9882   -1.0445 H   0  0  0  0  0  0  0  0  0  0  0  0
    3.2010   -2.3811    1.1735 H   0  0  0  0  0  0  0  0  0  0  0  0
    1.5564   -1.7451    1.2468 H   0  0  0  0  0  0  0  0  0  0  0  0
    3.6467   -0.4531    2.5079 H   0  0  0  0  0  0  0  0  0  0  0  0
    1.3288    0.4201    2.5711 H   0  0  0  0  0  0  0  0  0  0  0  0
    2.5078    1.6989    2.2598 H   0  0  0  0  0  0  0  0  0  0  0  0
    0.8624    2.2340    0.7341 H   0  0  0  0  0  0  0  0  0  0  0  0
    2.6701    2.2308   -0.7501 H   0  0  0  0  0  0  0  0  0  0  0  0
    1.5584    1.1626   -1.6052 H   0  0  0  0  0  0  0  0  0  0  0  0
   -1.6631   -1.1630    0.2307 H   0  0  0  0  0  0  0  0  0  0  0  0
   -2.2052    0.0678   -2.5372 H   0  0  0  0  0  0  0  0  0  0  0  0
   -0.8472   -0.9655   -2.1122 H   0  0  0  0  0  0  0  0  0  0  0  0
   -2.7479   -2.4322   -1.3450 H   0  0  0  0  0  0  0  0  0  0  0  0
   -3.7525    1.5270   -1.4959 H   0  0  0  0  0  0  0  0  0  0  0  0
   -6.0200    2.0897   -0.7238 H   0  0  0  0  0  0  0  0  0  0  0  0
   -6.9732    0.9896    1.2823 H   0  0  0  0  0  0  0  0  0  0  0  0
   -5.6305   -0.6729    2.5373 H   0  0  0  0  0  0  0  0  0  0  0  0
   -3.3616   -1.2593    1.7887 H   0  0  0  0  0  0  0  0  0  0  0  0
   -1.6065   -0.9132   -0.5138 H   0  0  0  0  0  0  0  0  0  0  0  0
    1.9093   -0.3359   -0.0767 H   0  0  0  0  0  0  0  0  0  0  0  0
   -0.7451   -0.2603    0.0000 H   0  0  0  0  0  0  0  0  0  0  0  0
    0.7774   -0.1361    0.0000 H   0  0  0  0  0  0  0  0  0  0  0  0
    0.7889    0.0191    0.0000 H   0  0  0  0  0  0  0  0  0  0  0  0
   -0.6792   -0.4016    0.0000 H   0  0  0  0  0  0  0  0  0  0  0  0
  1  2  1  0
  3  2  1  0
  3  4  1  0
  4  5  1  0
  6  5  1  0
  6  2  1  0
  6  7  1  0
  7  8  1  0
  8  9  1  0
  3  9  1  0
  8 10  1  0
 10 11  1  0
 11 12  2  0
 11 13  1  0
 13 14  1  0
 14 15  1  0
 13 16  1  0
 16 17  2  0
 17 18  1  0
 18 19  2  0
 19 20  1  0
 20 21  2  0
 16 21  1  0
 22 23  1  0
 24 23  1  0
 24 25  1  0
 25 26  1  0
 27 26  1  0
 27 23  1  0
 27 28  1  0
 28 29  1  0
 29 30  1  0
 24 30  1  0
 29 31  1  0
 31 32  1  0
 32 33  2  0
 32 34  1  0
 34 35  1  0
 35 36  1  0
 34 37  1  0
 37 38  2  0
 38 39  1  0
 39 40  2  0
 40 41  1  0
 41 42  2  0
 37 42  1  0
 43 44  2  0
 43 45  1  0
 43 46  1  0
 43 47  2  0
  1 50  1  0
  1 51  1  0
  1 52  1  0
  3 53  1  6
  4 54  1  0
  4 55  1  0
  5 56  1  0
  5 57  1  0
  6 58  1  1
  7 59  1  0
  7 60  1  0
  8 61  1  1
  9 62  1  0
  9 63  1  0
 13 64  1  6
 14 65  1  0
 14 66  1  0
 15 67  1  0
 17 68  1  0
 18 69  1  0
 19 70  1  0
 20 71  1  0
 21 72  1  0
 22 73  1  0
 22 74  1  0
 22 75  1  0
 24 76  1  6
 25 77  1  0
 25 78  1  0
 26 79  1  0
 26 80  1  0
 27 81  1  1
 28 82  1  0
 28 83  1  0
 29 84  1  1
 30 85  1  0
 30 86  1  0
 34 87  1  1
 35 88  1  0
 35 89  1  0
 36 90  1  0
 38 91  1  0
 39 92  1  0
 40 93  1  0
 41 94  1  0
 42 95  1  0
 45 96  1  0
 46 97  1  0
 48 98  1  0
 48 99  1  0
 49100  1  0
 49101  1  0
M  END
$$$$
