
     RDKit          3D

101102  0  0  0  0  0  0  0  0999 V2000
    5.0552   -0.8027    0.3376 C   0  0  0  0  0  0  0  0  0  0  0  0
    3.6791   -0.3120    0.3212 N   0  0  0  0  0  0  0  0  0  0  0  0
    3.4392    0.6943   -0.7289 C   0  0  1  0  0  0  0  0  0  0  0  0
    3.2911   -0.1196   -2.0184 C   0  0  0  0  0  0  0  0  0  0  0  0
    2.7849   -1.4793   -1.5547 C   0  0  0  0  0  0  0  0  0  0  0  0
    2.7027   -1.3611   -0.0281 C   0  0  2  0  0  0  0  0  0  0  0  0
    1.3097   -0.8748    0.4126 C   0  0  0  0  0  0  0  0  0  0  0  0
    1.2213    0.6521    0.5741 C   0  0  1  0  0  0  0  0  0  0  0  0
    2.1291    1.4304   -0.3911 C   0  0  0  0  0  0  0  0  0  0  0  0
   -0.1325    1.1028    0.3653 O   0  0  0  0  0  0  0  0  0  0  0  0
   -1.0069    0.9101    1.3944 C   0  0  0  0  0  0  0  0  0  0  0  0
   -0.7217    0.4183    2.4793 O   0  0  0  0  0  0  0  0  0  0  0  0
   -2.3992    1.3592    0.9873 C   0  0  2  0  0  0  0  0  0  0  0  0
   -3.1746    1.8071    2.2330 C   0  0  0  0  0  0  0  0  0  0  0  0
   -4.2067    2.7255    1.8643 O   0  0  0  0  0  0  0  0  0  0  0  0
   -3.1418    0.2823    0.2086 C   0  0  0  0  0  0  0  0  0  0  0  0
   -3.1838   -1.0501    0.6519 C   0  0  0  0  0  0  0  0  0  0  0  0
   -3.8725   -2.0208   -0.0772 C   0  0  0  0  0  0  0  0  0  0  0  0
   -4.5329   -1.6732   -1.2532 C   0  0  0  0  0  0  0  0  0  0  0  0
   -4.5108   -0.3533   -1.6981 C   0  0  0  0  0  0  0  0  0  0  0  0
   -3.8219    0.6195   -0.9714 C   0  0  0  0  0  0  0  0  0  0  0  0
   -4.9539   -0.1627    1.3021 C   0  0  0  0  0  0  0  0  0  0  0  0
   -3.5705   -0.3861    0.8879 N   0  0  0  0  0  0  0  0  0  0  0  0
   -3.4479   -0.7427   -0.5366 C   0  0  1  0  0  0  0  0  0  0  0  0
   -3.5755    0.5893   -1.2834 C   0  0  0  0  0  0  0  0  0  0  0  0
   -3.1009    1.6353   -0.2830 C   0  0  0  0  0  0  0  0  0  0  0  0
   -2.7452    0.8337    0.9740 C   0  0  2  0  0  0  0  0  0  0  0  0
   -1.2652    0.4079    0.9521 C   0  0  0  0  0  0  0  0  0  0  0  0
   -1.0411   -0.9870    0.3434 C   0  0  1  0  0  0  0  0  0  0  0  0
   -2.0534   -1.3593   -0.7522 C   0  0  0  0  0  0  0  0  0  0  0  0
    0.2809   -1.0859   -0.2278 O   0  0  0  0  0  0  0  0  0  0  0  0
    1.3145   -1.2465    0.6474 C   0  0  0  0  0  0  0  0  0  0  0  0
    1.2022   -1.3348    1.8628 O   0  0  0  0  0  0  0  0  0  0  0  0
    2.6330   -1.2817   -0.1060 C   0  0  2  0  0  0  0  0  0  0  0  0
    3.6162   -2.1998    0.6361 C   0  0  0  0  0  0  0  0  0  0  0  0
    4.6740   -2.6328   -0.2229 O   0  0  0  0  0  0  0  0  0  0  0  0
    3.1830    0.1177   -0.3334 C   0  0  0  0  0  0  0  0  0  0  0  0
    3.4530    0.5625   -1.6366 C   0  0  0  0  0  0  0  0  0  0  0  0
    3.9556    1.8462   -1.8602 C   0  0  0  0  0  0  0  0  0  0  0  0
    4.1946    2.7007   -0.7863 C   0  0  0  0  0  0  0  0  0  0  0  0
    3.9311    2.2734    0.5127 C   0  0  0  0  0  0  0  0  0  0  0  0
    3.4284    0.9906    0.7394 C   0  0  0  0  0  0  0  0  0  0  0  0
   -0.0824    0.4451    0.0442 S   0  0  0  0  0  0  0  0  0  0  0  0
    0.1576    1.0548    1.3273 O   0  0  0  0  0  0  0  0  0  0  0  0
    1.2767   -0.3024   -0.3646 O   0  0  0  0  0  0  0  0  0  0  0  0
   -1.0700   -0.8014    0.2543 O   0  0  0  0  0  0  0  0  0  0  0  0
   -0.5698    1.1619   -1.1064 O   0  0  0  0  0  0  0  0  0  0  0  0
   -0.0003    0.3978    0.0000 O   0  0  0  0  0  0  0  0  0  0  0  0
   -0.0057    0.3977    0.0000 O   0  0  0  0  0  0  0  0  0  0  0  0
    5.3781   -1.2538   -0.6061 H   0  0  0  0  0  0  0  0  0  0  0  0
    5.7423    0.0165    0.5746 H   0  0  0  0  0  0  0  0  0  0  0  0
    5.1742   -1.5516    1.1277 H   0  0  0  0  0  0  0  0  0  0  0  0
    4.2479    1.4285   -0.8181 H   0  0  0  0  0  0  0  0  0  0  0  0
    2.6143    0.3396   -2.7458 H   0  0  0  0  0  0  0  0  0  0  0  0
    4.2632   -0.2403   -2.5116 H   0  0  0  0  0  0  0  0  0  0  0  0
    3.5055   -2.2541   -1.8416 H   0  0  0  0  0  0  0  0  0  0  0  0
    1.8279   -1.7333   -2.0208 H   0  0  0  0  0  0  0  0  0  0  0  0
    2.9122   -2.3247    0.4510 H   0  0  0  0  0  0  0  0  0  0  0  0
    0.5283   -1.2381   -0.2661 H   0  0  0  0  0  0  0  0  0  0  0  0
    1.0771   -1.3234    1.3878 H   0  0  0  0  0  0  0  0  0  0  0  0
    1.5313    0.9193    1.5948 H   0  0  0  0  0  0  0  0  0  0  0  0
    2.3712    2.3875    0.0912 H   0  0  0  0  0  0  0  0  0  0  0  0
    1.5820    1.7014   -1.3024 H   0  0  0  0  0  0  0  0  0  0  0  0
   -2.2694    2.2409    0.3433 H   0  0  0  0  0  0  0  0  0  0  0  0
   -2.5202    2.3338    2.9363 H   0  0  0  0  0  0  0  0  0  0  0  0
   -3.6325    0.9623    2.7600 H   0  0  0  0  0  0  0  0  0  0  0  0
   -4.7356    2.8923    2.6643 H   0  0  0  0  0  0  0  0  0  0  0  0
   -2.6809   -1.3477    1.5705 H   0  0  0  0  0  0  0  0  0  0  0  0
   -3.8953   -3.0488    0.2756 H   0  0  0  0  0  0  0  0  0  0  0  0
   -5.0700   -2.4295   -1.8194 H   0  0  0  0  0  0  0  0  0  0  0  0
   -5.0327   -0.0792   -2.6112 H   0  0  0  0  0  0  0  0  0  0  0  0
   -3.8262    1.6480   -1.3279 H   0  0  0  0  0  0  0  0  0  0  0  0
   -5.5310   -1.0881    1.1956 H   0  0  0  0  0  0  0  0  0  0  0  0
   -5.4664    0.6229    0.7367 H   0  0  0  0  0  0  0  0  0  0  0  0
   -4.9870    0.1063    2.3640 H   0  0  0  0  0  0  0  0  0  0  0  0
   -4.2090   -1.4565   -0.8729 H   0  0  0  0  0  0  0  0  0  0  0  0
   -2.9955    0.6235   -2.2114 H   0  0  0  0  0  0  0  0  0  0  0  0
   -4.6218    0.7836   -1.5463 H   0  0  0  0  0  0  0  0  0  0  0  0
   -2.2608    2.2169   -0.6758 H   0  0  0  0  0  0  0  0  0  0  0  0
   -3.9163    2.3382   -0.0738 H   0  0  0  0  0  0  0  0  0  0  0  0
   -2.9343    1.4210    1.8804 H   0  0  0  0  0  0  0  0  0  0  0  0
   -0.6422    1.1567    0.4463 H   0  0  0  0  0  0  0  0  0  0  0  0
   -0.8982    0.3781    1.9871 H   0  0  0  0  0  0  0  0  0  0  0  0
   -1.1379   -1.7399    1.1391 H   0  0  0  0  0  0  0  0  0  0  0  0
   -1.6598   -1.1082   -1.7448 H   0  0  0  0  0  0  0  0  0  0  0  0
   -2.1438   -2.4545   -0.7500 H   0  0  0  0  0  0  0  0  0  0  0  0
    2.4330   -1.7486   -1.0809 H   0  0  0  0  0  0  0  0  0  0  0  0
    3.1130   -3.1006    1.0057 H   0  0  0  0  0  0  0  0  0  0  0  0
    4.0715   -1.7064    1.5013 H   0  0  0  0  0  0  0  0  0  0  0  0
    4.2873   -3.1880   -0.9209 H   0  0  0  0  0  0  0  0  0  0  0  0
    3.2802   -0.0890   -2.4903 H   0  0  0  0  0  0  0  0  0  0  0  0
    4.1643    2.1778   -2.8740 H   0  0  0  0  0  0  0  0  0  0  0  0
    4.5902    3.6978   -0.9613 H   0  0  0  0  0  0  0  0  0  0  0  0
    4.1202    2.9380    1.3519 H   0  0  0  0  0  0  0  0  0  0  0  0
    3.2312    0.6812    1.7645 H   0  0  0  0  0  0  0  0  0  0  0  0
    1.7377   -0.5384    0.4670 H   0  0  0  0  0  0  0  0  0  0  0  0
   -1.4499   -1.0196   -0.6217 H   0  0  0  0  0  0  0  0  0  0  0  0
   -0.7634   -0.1994    0.0000 H   0  0  0  0  0  0  0  0  0  0  0  0
    0.7637   -0.1984    0.0000 H   0  0  0  0  0  0  0  0  0  0  0  0
    0.7663   -0.1878    0.0000 H   0  0  0  0  0  0  0  0  0  0  0  0
   -0.7606   -0.2099    0.0000 H   0  0  0  0  0  0  0  0  0  0  0  0
  1  2  1  0
  3  2  1  0
  3  4  1  0
  4  5  1  0
  6  5  1  0
  6  2  1  0
  6  7  1  0
  7  8  1  0
  8  9  1  0
  3  9  1  0
  8 10  1  0
 10 11  1  0
 11 12  2  0
 11 13  1  0
 13 14  1  0
 14 15  1  0
 13 16  1  0
 16 17  2  0
 17 18  1  0
 18 19  2  0
 19 20  1  0
 20 21  2  0
 16 21  1  0
 22 23  1  0
 24 23  1  0
 24 25  1  0
 25 26  1  0
 27 26  1  0
 27 23  1  0
 27 28  1  0
 28 29  1  0
 29 30  1  0
 24 30  1  0
 29 31  1  0
 31 32  1  0
 32 33  2  0
 32 34  1  0
 34 35  1  0
 35 36  1  0
 34 37  1  0
 37 38  2  0
 38 39  1  0
 39 40  2  0
 40 41  1  0
 41 42  2  0
 37 42  1  0
 43 44  2  0
 43 45  1  0
 43 46  1  0
 43 47  2  0
  1 50  1  0
  1 51  1  0
  1 52  1  0
  3 53  1  6
  4 54  1  0
  4 55  1  0
  5 56  1  0
  5 57  1  0
  6 58  1  1
  7 59  1  0
  7 60  1  0
  8 61  1  1
  9 62  1  0
  9 63  1  0
 13 64  1  6
 14 65  1  0
 14 66  1  0
 15 67  1  0
 17 68  1  0
 18 69  1  0
 19 70  1  0
 20 71  1  0
 21 72  1  0
 22 73  1  0
 22 74  1  0
 22 75  1  0
 24 76  1  6
 25 77  1  0
 25 78  1  0
 26 79  1  0
 26 80  1  0
 27 81  1  1
 28 82  1  0
 28 83  1  0
 29 84  1  1
 30 85  1  0
 30 86  1  0
 34 87  1  6
 35 88  1  0
 35 89  1  0
 36 90  1  0
 38 91  1  0
 39 92  1  0
 40 93  1  0
 41 94  1  0
 42 95  1  0
 45 96  1  0
 46 97  1  0
 48 98  1  0
 48 99  1  0
 49100  1  0
 49101  1  0
M  END
$$$$
