
     RDKit          3D

101102  0  0  0  0  0  0  0  0999 V2000
    5.0329    1.4460   -0.1781 C   0  0  0  0  0  0  0  0  0  0  0  0
    3.6488    1.0064   -0.0108 N   0  0  0  0  0  0  0  0  0  0  0  0
    3.3535   -0.2452   -0.7346 C   0  0  1  0  0  0  0  0  0  0  0  0
    3.9363   -1.3538    0.1485 C   0  0  0  0  0  0  0  0  0  0  0  0
    3.9045   -0.7735    1.5559 C   0  0  0  0  0  0  0  0  0  0  0  0
    3.3314    0.6387    1.3805 C   0  0  2  0  0  0  0  0  0  0  0  0
    1.7995    0.6331    1.5259 C   0  0  0  0  0  0  0  0  0  0  0  0
    1.0525    0.4449    0.1947 C   0  0  1  0  0  0  0  0  0  0  0  0
    1.8238   -0.3846   -0.8465 C   0  0  0  0  0  0  0  0  0  0  0  0
   -0.2222   -0.1641    0.4936 O   0  0  0  0  0  0  0  0  0  0  0  0
   -1.1992   -0.0387   -0.4517 C   0  0  0  0  0  0  0  0  0  0  0  0
   -1.0701    0.5444   -1.5202 O   0  0  0  0  0  0  0  0  0  0  0  0
   -2.4595   -0.7573    0.0085 C   0  0  2  0  0  0  0  0  0  0  0  0
   -2.5805   -2.0724   -0.7720 C   0  0  0  0  0  0  0  0  0  0  0  0
   -1.7435   -3.0828   -0.2051 O   0  0  0  0  0  0  0  0  0  0  0  0
   -3.7008    0.1133   -0.1288 C   0  0  0  0  0  0  0  0  0  0  0  0
   -4.3591    0.5774    1.0212 C   0  0  0  0  0  0  0  0  0  0  0  0
   -5.5018    1.3733    0.9156 C   0  0  0  0  0  0  0  0  0  0  0  0
   -5.9995    1.7174   -0.3389 C   0  0  0  0  0  0  0  0  0  0  0  0
   -5.3533    1.2714   -1.4892 C   0  0  0  0  0  0  0  0  0  0  0  0
   -4.2108    0.4760   -1.3858 C   0  0  0  0  0  0  0  0  0  0  0  0
   -4.9540   -0.6745   -0.4299 C   0  0  0  0  0  0  0  0  0  0  0  0
   -3.5590   -0.4785   -0.0428 N   0  0  0  0  0  0  0  0  0  0  0  0
   -2.6180   -0.7027   -1.1566 C   0  0  1  0  0  0  0  0  0  0  0  0
   -2.6818    0.5858   -1.9836 C   0  0  0  0  0  0  0  0  0  0  0  0
   -3.1089    1.6590   -0.9897 C   0  0  0  0  0  0  0  0  0  0  0  0
   -3.2593    0.9131    0.3413 C   0  0  2  0  0  0  0  0  0  0  0  0
   -1.9308    0.9147    1.1209 C   0  0  0  0  0  0  0  0  0  0  0  0
   -1.0646   -0.3285    0.8602 C   0  0  1  0  0  0  0  0  0  0  0  0
   -1.2132   -0.9037   -0.5581 C   0  0  0  0  0  0  0  0  0  0  0  0
    0.3093    0.0336    1.1071 O   0  0  0  0  0  0  0  0  0  0  0  0
    1.1571   -0.9789    1.4438 C   0  0  0  0  0  0  0  0  0  0  0  0
    0.8362   -2.1587    1.5511 O   0  0  0  0  0  0  0  0  0  0  0  0
    2.5874   -0.4882    1.6030 C   0  0  2  0  0  0  0  0  0  0  0  0
    2.6679    0.7349    2.5264 C   0  0  0  0  0  0  0  0  0  0  0  0
    2.4491    0.3691    3.8896 O   0  0  0  0  0  0  0  0  0  0  0  0
    3.2409   -0.2582    0.2487 C   0  0  0  0  0  0  0  0  0  0  0  0
    2.9504    0.8743   -0.5298 C   0  0  0  0  0  0  0  0  0  0  0  0
    3.5516    1.0534   -1.7774 C   0  0  0  0  0  0  0  0  0  0  0  0
    4.4462    0.1036   -2.2656 C   0  0  0  0  0  0  0  0  0  0  0  0
    4.7344   -1.0310   -1.5100 C   0  0  0  0  0  0  0  0  0  0  0  0
    4.1344   -1.2131   -0.2625 C   0  0  0  0  0  0  0  0  0  0  0  0
   -0.0184    0.4545   -0.0427 S   0  0  0  0  0  0  0  0  0  0  0  0
    0.4253    1.2543    1.0704 O   0  0  0  0  0  0  0  0  0  0  0  0
    1.1673   -0.5785   -0.3583 O   0  0  0  0  0  0  0  0  0  0  0  0
   -1.1655   -0.5420    0.4727 O   0  0  0  0  0  0  0  0  0  0  0  0
   -0.4844    1.0040   -1.2910 O   0  0  0  0  0  0  0  0  0  0  0  0
   -0.0246    0.3972    0.0000 O   0  0  0  0  0  0  0  0  0  0  0  0
   -0.0239    0.3974    0.0000 O   0  0  0  0  0  0  0  0  0  0  0  0
    5.2233    1.6896   -1.2284 H   0  0  0  0  0  0  0  0  0  0  0  0
    5.2041    2.3645    0.3944 H   0  0  0  0  0  0  0  0  0  0  0  0
    5.7759    0.7067    0.1390 H   0  0  0  0  0  0  0  0  0  0  0  0
    3.7885   -0.2756   -1.7398 H   0  0  0  0  0  0  0  0  0  0  0  0
    3.3803   -2.2947    0.0855 H   0  0  0  0  0  0  0  0  0  0  0  0
    4.9732   -1.5691   -0.1348 H   0  0  0  0  0  0  0  0  0  0  0  0
    3.3155   -1.3972    2.2357 H   0  0  0  0  0  0  0  0  0  0  0  0
    4.9245   -0.7274    1.9558 H   0  0  0  0  0  0  0  0  0  0  0  0
    3.7561    1.3279    2.1206 H   0  0  0  0  0  0  0  0  0  0  0  0
    1.4813    1.5996    1.9423 H   0  0  0  0  0  0  0  0  0  0  0  0
    1.4760   -0.1136    2.2619 H   0  0  0  0  0  0  0  0  0  0  0  0
    0.8719    1.4485   -0.2173 H   0  0  0  0  0  0  0  0  0  0  0  0
    1.5164   -1.4370   -0.8048 H   0  0  0  0  0  0  0  0  0  0  0  0
    1.5166   -0.0341   -1.8417 H   0  0  0  0  0  0  0  0  0  0  0  0
   -2.3315   -0.9987    1.0729 H   0  0  0  0  0  0  0  0  0  0  0  0
   -2.2910   -1.9539   -1.8221 H   0  0  0  0  0  0  0  0  0  0  0  0
   -3.6067   -2.4591   -0.7526 H   0  0  0  0  0  0  0  0  0  0  0  0
   -2.1352   -3.3469    0.6457 H   0  0  0  0  0  0  0  0  0  0  0  0
   -3.9881    0.3263    2.0121 H   0  0  0  0  0  0  0  0  0  0  0  0
   -6.0028    1.7275    1.8134 H   0  0  0  0  0  0  0  0  0  0  0  0
   -6.8863    2.3406   -0.4211 H   0  0  0  0  0  0  0  0  0  0  0  0
   -5.7333    1.5488   -2.4689 H   0  0  0  0  0  0  0  0  0  0  0  0
   -3.7116    0.1574   -2.3003 H   0  0  0  0  0  0  0  0  0  0  0  0
   -5.1134   -1.7131   -0.7390 H   0  0  0  0  0  0  0  0  0  0  0  0
   -5.2853   -0.0249   -1.2461 H   0  0  0  0  0  0  0  0  0  0  0  0
   -5.6089   -0.4978    0.4300 H   0  0  0  0  0  0  0  0  0  0  0  0
   -2.8704   -1.5753   -1.7704 H   0  0  0  0  0  0  0  0  0  0  0  0
   -1.7332    0.8385   -2.4686 H   0  0  0  0  0  0  0  0  0  0  0  0
   -3.4384    0.4985   -2.7723 H   0  0  0  0  0  0  0  0  0  0  0  0
   -2.3861    2.4806   -0.9450 H   0  0  0  0  0  0  0  0  0  0  0  0
   -4.0688    2.0883   -1.3035 H   0  0  0  0  0  0  0  0  0  0  0  0
   -4.0386    1.3700    0.9630 H   0  0  0  0  0  0  0  0  0  0  0  0
   -2.1517    0.9364    2.1971 H   0  0  0  0  0  0  0  0  0  0  0  0
   -1.3603    1.8330    0.9294 H   0  0  0  0  0  0  0  0  0  0  0  0
   -1.3715   -1.0938    1.5886 H   0  0  0  0  0  0  0  0  0  0  0  0
   -1.0099   -1.9818   -0.4983 H   0  0  0  0  0  0  0  0  0  0  0  0
   -0.4373   -0.5024   -1.2224 H   0  0  0  0  0  0  0  0  0  0  0  0
    3.1200   -1.3030    2.1147 H   0  0  0  0  0  0  0  0  0  0  0  0
    1.9334    1.5056    2.2713 H   0  0  0  0  0  0  0  0  0  0  0  0
    3.6585    1.2020    2.4740 H   0  0  0  0  0  0  0  0  0  0  0  0
    3.2198   -0.1426    4.1899 H   0  0  0  0  0  0  0  0  0  0  0  0
    2.2457    1.6270   -0.1796 H   0  0  0  0  0  0  0  0  0  0  0  0
    3.3160    1.9323   -2.3725 H   0  0  0  0  0  0  0  0  0  0  0  0
    4.9127    0.2429   -3.2375 H   0  0  0  0  0  0  0  0  0  0  0  0
    5.4250   -1.7782   -1.8937 H   0  0  0  0  0  0  0  0  0  0  0  0
    4.3673   -2.1129    0.3051 H   0  0  0  0  0  0  0  0  0  0  0  0
    1.6848   -0.6830    0.4677 H   0  0  0  0  0  0  0  0  0  0  0  0
   -1.6092   -0.9093   -0.3187 H   0  0  0  0  0  0  0  0  0  0  0  0
   -0.7495   -0.2459    0.0000 H   0  0  0  0  0  0  0  0  0  0  0  0
    0.7741   -0.1513    0.0000 H   0  0  0  0  0  0  0  0  0  0  0  0
   -0.7496   -0.2446    0.0000 H   0  0  0  0  0  0  0  0  0  0  0  0
    0.7735   -0.1529    0.0000 H   0  0  0  0  0  0  0  0  0  0  0  0
  1  2  1  0
  3  2  1  0
  3  4  1  0
  4  5  1  0
  6  5  1  0
  6  2  1  0
  6  7  1  0
  7  8  1  0
  8  9  1  0
  3  9  1  0
  8 10  1  0
 10 11  1  0
 11 12  2  0
 11 13  1  0
 13 14  1  0
 14 15  1  0
 13 16  1  0
 16 17  2  0
 17 18  1  0
 18 19  2  0
 19 20  1  0
 20 21  2  0
 16 21  1  0
 22 23  1  0
 24 23  1  0
 24 25  1  0
 25 26  1  0
 27 26  1  0
 27 23  1  0
 27 28  1  0
 28 29  1  0
 29 30  1  0
 24 30  1  0
 29 31  1  0
 31 32  1  0
 32 33  2  0
 32 34  1  0
 34 35  1  0
 35 36  1  0
 34 37  1  0
 37 38  2  0
 38 39  1  0
 39 40  2  0
 40 41  1  0
 41 42  2  0
 37 42  1  0
 43 44  2  0
 43 45  1  0
 43 46  1  0
 43 47  2  0
  1 50  1  0
  1 51  1  0
  1 52  1  0
  3 53  1  6
  4 54  1  0
  4 55  1  0
  5 56  1  0
  5 57  1  0
  6 58  1  1
  7 59  1  0
  7 60  1  0
  8 61  1  6
  9 62  1  0
  9 63  1  0
 13 64  1  1
 14 65  1  0
 14 66  1  0
 15 67  1  0
 17 68  1  0
 18 69  1  0
 19 70  1  0
 20 71  1  0
 21 72  1  0
 22 73  1  0
 22 74  1  0
 22 75  1  0
 24 76  1  6
 25 77  1  0
 25 78  1  0
 26 79  1  0
 26 80  1  0
 27 81  1  1
 28 82  1  0
 28 83  1  0
 29 84  1  1
 30 85  1  0
 30 86  1  0
 34 87  1  1
 35 88  1  0
 35 89  1  0
 36 90  1  0
 38 91  1  0
 39 92  1  0
 40 93  1  0
 41 94  1  0
 42 95  1  0
 45 96  1  0
 46 97  1  0
 48 98  1  0
 48 99  1  0
 49100  1  0
 49101  1  0
M  END
$$$$
