
     RDKit          3D

 49 50  0  0  0  0  0  0  0  0999 V2000
    5.1826   -1.1188   -1.4457 C   0  0  0  0  0  0  0  0  0  0  0  0
    3.8312   -0.6359   -1.5234 N   0  0  0  0  0  0  0  0  0  0  0  0
    2.9899   -1.5766   -0.7742 C   0  0  1  0  0  0  0  0  0  0  0  0
    3.4744   -1.3869    0.6519 C   0  0  0  0  0  0  0  0  0  0  0  0
    3.8920    0.0523    0.6942 C   0  0  0  0  0  0  0  0  0  0  0  0
    3.7015    0.5516   -0.7097 C   0  0  2  0  0  0  0  0  0  0  0  0
    2.3591    1.1628   -0.9687 C   0  0  0  0  0  0  0  0  0  0  0  0
    1.2689    0.1973   -1.2229 C   0  0  1  0  0  0  0  0  0  0  0  0
    1.5425   -1.2177   -0.9032 C   0  0  0  0  0  0  0  0  0  0  0  0
    0.0526    0.7042   -0.7081 O   0  0  0  0  0  0  0  0  0  0  0  0
   -0.2568    0.3822    0.6067 C   0  0  0  0  0  0  0  0  0  0  0  0
    0.4814   -0.3242    1.3410 O   0  0  0  0  0  0  0  0  0  0  0  0
   -1.5246    0.8962    1.1810 C   0  0  2  0  0  0  0  0  0  0  0  0
   -1.6391    0.6685    2.6478 C   0  0  0  0  0  0  0  0  0  0  0  0
   -2.8704    1.1919    3.0808 O   0  0  0  0  0  0  0  0  0  0  0  0
   -2.6656    0.3979    0.4007 C   0  0  0  0  0  0  0  0  0  0  0  0
   -2.9075    0.8647   -0.8685 C   0  0  0  0  0  0  0  0  0  0  0  0
   -3.9917    0.3856   -1.5992 C   0  0  0  0  0  0  0  0  0  0  0  0
   -4.8294   -0.5626   -1.0493 C   0  0  0  0  0  0  0  0  0  0  0  0
   -4.5851   -1.0317    0.2279 C   0  0  0  0  0  0  0  0  0  0  0  0
   -3.5060   -0.5475    0.9411 C   0  0  0  0  0  0  0  0  0  0  0  0
    5.4835    0.6675    0.3281 C   0  0  0  0  0  0  0  0  0  0  0  0
    4.1849    0.1215    0.5647 N   0  0  0  0  0  0  0  0  0  0  0  0
    3.1284    1.1366    0.6288 C   0  0  1  0  0  0  0  0  0  0  0  0
    2.6976    1.4027   -0.7951 C   0  0  0  0  0  0  0  0  0  0  0  0
    3.4632    0.3667   -1.6216 C   0  0  0  0  0  0  0  0  0  0  0  0
    3.7260   -0.6765   -0.5537 C   0  0  2  0  0  0  0  0  0  0  0  0
    2.4583   -1.4087   -0.2261 C   0  0  0  0  0  0  0  0  0  0  0  0
    1.8018   -0.9588    1.0363 C   0  0  1  0  0  0  0  0  0  0  0  0
    1.9848    0.4894    1.3583 C   0  0  0  0  0  0  0  0  0  0  0  0
    0.4301   -1.3117    1.0467 O   0  0  0  0  0  0  0  0  0  0  0  0
   -0.5857   -0.5117    0.5630 C   0  0  0  0  0  0  0  0  0  0  0  0
   -0.3891    0.6299    0.0564 O   0  0  0  0  0  0  0  0  0  0  0  0
   -1.9875   -1.0143    0.6393 C   0  0  2  0  0  0  0  0  0  0  0  0
   -2.0663   -2.3622   -0.0144 C   0  0  0  0  0  0  0  0  0  0  0  0
   -1.6714   -2.2012   -1.3477 O   0  0  0  0  0  0  0  0  0  0  0  0
   -2.9095   -0.0110    0.0720 C   0  0  0  0  0  0  0  0  0  0  0  0
   -3.1142    0.1042   -1.2816 C   0  0  0  0  0  0  0  0  0  0  0  0
   -3.9837    1.0564   -1.7497 C   0  0  0  0  0  0  0  0  0  0  0  0
   -4.6413    1.8845   -0.8701 C   0  0  0  0  0  0  0  0  0  0  0  0
   -4.4434    1.7780    0.4924 C   0  0  0  0  0  0  0  0  0  0  0  0
   -3.5666    0.8187    0.9737 C   0  0  0  0  0  0  0  0  0  0  0  0
   -0.0008    0.0287   -0.0038 S   0  0  0  0  0  0  0  0  0  0  0  0
   -0.2285    1.0462   -1.0883 O   0  0  0  0  0  0  0  0  0  0  0  0
   -1.2899   -1.0302    0.0023 O   0  0  0  0  0  0  0  0  0  0  0  0
    1.4582   -0.7850   -0.2233 O   0  0  0  0  0  0  0  0  0  0  0  0
    0.0610    0.7403    1.3131 O   0  0  0  0  0  0  0  0  0  0  0  0
    0.0000    0.0000    0.0000 O   0  0  0  0  0  0  0  0  0  0  0  0
    0.0000    0.0000    0.0000 O   0  0  0  0  0  0  0  0  0  0  0  0
  1  2  1  0
  3  2  1  0
  3  4  1  1
  4  5  1  0
  6  5  1  1
  6  2  1  0
  6  7  1  0
  7  8  1  0
  8  9  1  0
  3  9  1  0
  8 10  1  1
 10 11  1  0
 11 12  2  0
 11 13  1  0
 13 14  1  1
 14 15  1  0
 13 16  1  0
 16 17  2  0
 17 18  1  0
 18 19  2  0
 19 20  1  0
 20 21  2  0
 16 21  1  0
 22 23  1  0
 24 23  1  0
 24 25  1  6
 25 26  1  0
 27 26  1  6
 27 23  1  0
 27 28  1  0
 28 29  1  0
 29 30  1  0
 24 30  1  0
 29 31  1  6
 31 32  1  0
 32 33  2  0
 32 34  1  0
 34 35  1  6
 35 36  1  0
 34 37  1  0
 37 38  2  0
 38 39  1  0
 39 40  2  0
 40 41  1  0
 41 42  2  0
 37 42  1  0
 43 44  2  0
 43 45  1  0
 43 46  1  0
 43 47  2  0
M  END
