
     RDKit          3D

101102  0  0  0  0  0  0  0  0999 V2000
   -4.8416    0.4988   -2.3709 C   0  0  0  0  0  0  0  0  0  0  0  0
   -3.4888    0.2918   -1.8554 N   0  0  0  0  0  0  0  0  0  0  0  0
   -2.7323   -0.7116   -2.6259 C   0  0  1  0  0  0  0  0  0  0  0  0
   -2.2607    0.0331   -3.8795 C   0  0  0  0  0  0  0  0  0  0  0  0
   -2.1944    1.4932   -3.4526 C   0  0  0  0  0  0  0  0  0  0  0  0
   -2.6384    1.4892   -1.9865 C   0  0  2  0  0  0  0  0  0  0  0  0
   -1.4302    1.3209   -1.0481 C   0  0  0  0  0  0  0  0  0  0  0  0
   -1.1142   -0.1435   -0.7025 C   0  0  1  0  0  0  0  0  0  0  0  0
   -1.5310   -1.1601   -1.7760 C   0  0  0  0  0  0  0  0  0  0  0  0
    0.3049   -0.2995   -0.4840 O   0  0  0  0  0  0  0  0  0  0  0  0
    0.7730   -0.0057    0.7671 C   0  0  0  0  0  0  0  0  0  0  0  0
    0.0769    0.4344    1.6732 O   0  0  0  0  0  0  0  0  0  0  0  0
    2.2862   -0.1956    0.8156 C   0  0  2  0  0  0  0  0  0  0  0  0
    2.7330   -1.5062    0.1435 C   0  0  0  0  0  0  0  0  0  0  0  0
    2.1050   -2.6554    0.7074 O   0  0  0  0  0  0  0  0  0  0  0  0
    2.8883   -0.0450    2.2093 C   0  0  0  0  0  0  0  0  0  0  0  0
    3.8481    0.9500    2.4566 C   0  0  0  0  0  0  0  0  0  0  0  0
    4.4274    1.0812    3.7204 C   0  0  0  0  0  0  0  0  0  0  0  0
    4.0579    0.2206    4.7524 C   0  0  0  0  0  0  0  0  0  0  0  0
    3.1037   -0.7680    4.5232 C   0  0  0  0  0  0  0  0  0  0  0  0
    2.5221   -0.8991    3.2613 C   0  0  0  0  0  0  0  0  0  0  0  0
    4.3279   -0.3025    1.4975 C   0  0  0  0  0  0  0  0  0  0  0  0
    3.4711    0.3734    0.5430 N   0  0  0  0  0  0  0  0  0  0  0  0
    2.2912    1.0484    1.0934 C   0  0  1  0  0  0  0  0  0  0  0  0
    1.6846    1.6080   -0.1970 C   0  0  0  0  0  0  0  0  0  0  0  0
    2.1014    0.6086   -1.2825 C   0  0  0  0  0  0  0  0  0  0  0  0
    2.9202   -0.4514   -0.5358 C   0  0  2  0  0  0  0  0  0  0  0  0
    2.0374   -1.5995   -0.0116 C   0  0  0  0  0  0  0  0  0  0  0  0
    0.9351   -1.1378    0.9550 C   0  0  1  0  0  0  0  0  0  0  0  0
    1.3429    0.0711    1.8125 C   0  0  0  0  0  0  0  0  0  0  0  0
   -0.2580   -0.7704    0.2306 O   0  0  0  0  0  0  0  0  0  0  0  0
   -1.0923   -1.7817   -0.1333 C   0  0  0  0  0  0  0  0  0  0  0  0
   -0.8550   -2.9750    0.0454 O   0  0  0  0  0  0  0  0  0  0  0  0
   -2.3609   -1.2902   -0.8021 C   0  0  2  0  0  0  0  0  0  0  0  0
   -2.2221   -1.4153   -2.3262 C   0  0  0  0  0  0  0  0  0  0  0  0
   -1.1478   -0.6477   -2.8580 O   0  0  0  0  0  0  0  0  0  0  0  0
   -2.8792    0.0390   -0.2624 C   0  0  0  0  0  0  0  0  0  0  0  0
   -3.7417    0.0357    0.8489 C   0  0  0  0  0  0  0  0  0  0  0  0
   -4.2158    1.2302    1.3936 C   0  0  0  0  0  0  0  0  0  0  0  0
   -3.8315    2.4486    0.8419 C   0  0  0  0  0  0  0  0  0  0  0  0
   -2.9691    2.4709   -0.2503 C   0  0  0  0  0  0  0  0  0  0  0  0
   -2.4945    1.2764   -0.7972 C   0  0  0  0  0  0  0  0  0  0  0  0
   -0.2579   -0.3614   -0.0309 S   0  0  0  0  0  0  0  0  0  0  0  0
   -0.7553   -0.7202   -1.3350 O   0  0  0  0  0  0  0  0  0  0  0  0
   -0.7432    1.1302    0.3058 O   0  0  0  0  0  0  0  0  0  0  0  0
    1.3230   -0.1422   -0.1992 O   0  0  0  0  0  0  0  0  0  0  0  0
   -0.4791   -1.1460    1.1560 O   0  0  0  0  0  0  0  0  0  0  0  0
   -0.0156    0.3974    0.0000 O   0  0  0  0  0  0  0  0  0  0  0  0
   -0.0174    0.3977    0.0000 O   0  0  0  0  0  0  0  0  0  0  0  0
   -5.4281   -0.4206   -2.2625 H   0  0  0  0  0  0  0  0  0  0  0  0
   -5.3544    1.2706   -1.7855 H   0  0  0  0  0  0  0  0  0  0  0  0
   -4.8736    0.7971   -3.4236 H   0  0  0  0  0  0  0  0  0  0  0  0
   -3.3273   -1.5927   -2.8953 H   0  0  0  0  0  0  0  0  0  0  0  0
   -2.9881   -0.0765   -4.6939 H   0  0  0  0  0  0  0  0  0  0  0  0
   -1.2956   -0.3224   -4.2556 H   0  0  0  0  0  0  0  0  0  0  0  0
   -2.8881    2.0839   -4.0628 H   0  0  0  0  0  0  0  0  0  0  0  0
   -1.1949    1.9135   -3.6005 H   0  0  0  0  0  0  0  0  0  0  0  0
   -3.1589    2.4202   -1.7315 H   0  0  0  0  0  0  0  0  0  0  0  0
   -1.6473    1.8365   -0.1032 H   0  0  0  0  0  0  0  0  0  0  0  0
   -0.5431    1.8258   -1.4503 H   0  0  0  0  0  0  0  0  0  0  0  0
   -1.6581   -0.4116    0.2150 H   0  0  0  0  0  0  0  0  0  0  0  0
   -1.7961   -2.0906   -1.2538 H   0  0  0  0  0  0  0  0  0  0  0  0
   -0.6773   -1.4271   -2.4115 H   0  0  0  0  0  0  0  0  0  0  0  0
    2.6845    0.6278    0.2039 H   0  0  0  0  0  0  0  0  0  0  0  0
    2.4932   -1.4942   -0.9260 H   0  0  0  0  0  0  0  0  0  0  0  0
    3.8176   -1.6326    0.2384 H   0  0  0  0  0  0  0  0  0  0  0  0
    2.5360   -3.4367    0.3216 H   0  0  0  0  0  0  0  0  0  0  0  0
    4.1511    1.6363    1.6686 H   0  0  0  0  0  0  0  0  0  0  0  0
    5.1678    1.8559    3.8998 H   0  0  0  0  0  0  0  0  0  0  0  0
    4.5103    0.3215    5.7358 H   0  0  0  0  0  0  0  0  0  0  0  0
    2.8014   -1.4333    5.3276 H   0  0  0  0  0  0  0  0  0  0  0  0
    1.7744   -1.6740    3.1029 H   0  0  0  0  0  0  0  0  0  0  0  0
    5.2054   -0.7125    0.9856 H   0  0  0  0  0  0  0  0  0  0  0  0
    4.7030    0.4136    2.2370 H   0  0  0  0  0  0  0  0  0  0  0  0
    3.8426   -1.1178    2.0397 H   0  0  0  0  0  0  0  0  0  0  0  0
    2.5700    1.8651    1.7678 H   0  0  0  0  0  0  0  0  0  0  0  0
    2.1204    2.5885   -0.4265 H   0  0  0  0  0  0  0  0  0  0  0  0
    0.5993    1.7376   -0.1428 H   0  0  0  0  0  0  0  0  0  0  0  0
    2.7292    1.1198   -2.0252 H   0  0  0  0  0  0  0  0  0  0  0  0
    1.2400    0.1925   -1.8131 H   0  0  0  0  0  0  0  0  0  0  0  0
    3.7086   -0.8514   -1.1846 H   0  0  0  0  0  0  0  0  0  0  0  0
    1.6025   -2.1306   -0.8681 H   0  0  0  0  0  0  0  0  0  0  0  0
    2.6765   -2.3244    0.5071 H   0  0  0  0  0  0  0  0  0  0  0  0
    0.6781   -1.9579    1.6386 H   0  0  0  0  0  0  0  0  0  0  0  0
    0.4475    0.6185    2.1385 H   0  0  0  0  0  0  0  0  0  0  0  0
    1.8324   -0.2918    2.7256 H   0  0  0  0  0  0  0  0  0  0  0  0
   -3.1316   -2.0266   -0.5268 H   0  0  0  0  0  0  0  0  0  0  0  0
   -3.1463   -1.0959   -2.8206 H   0  0  0  0  0  0  0  0  0  0  0  0
   -2.0373   -2.4620   -2.5952 H   0  0  0  0  0  0  0  0  0  0  0  0
   -1.1017   -0.8429   -3.8102 H   0  0  0  0  0  0  0  0  0  0  0  0
   -4.0495   -0.9028    1.3065 H   0  0  0  0  0  0  0  0  0  0  0  0
   -4.8814    1.2093    2.2521 H   0  0  0  0  0  0  0  0  0  0  0  0
   -4.1958    3.3795    1.2671 H   0  0  0  0  0  0  0  0  0  0  0  0
   -2.6548    3.4211   -0.6749 H   0  0  0  0  0  0  0  0  0  0  0  0
   -1.8009    1.3323   -1.6326 H   0  0  0  0  0  0  0  0  0  0  0  0
   -0.5832    1.2793    1.2610 H   0  0  0  0  0  0  0  0  0  0  0  0
    1.4957   -0.0397   -1.1576 H   0  0  0  0  0  0  0  0  0  0  0  0
   -0.7562   -0.2286    0.0000 H   0  0  0  0  0  0  0  0  0  0  0  0
    0.7718   -0.1688    0.0000 H   0  0  0  0  0  0  0  0  0  0  0  0
   -0.7539   -0.2323    0.0000 H   0  0  0  0  0  0  0  0  0  0  0  0
    0.7713   -0.1654    0.0000 H   0  0  0  0  0  0  0  0  0  0  0  0
  1  2  1  0
  3  2  1  0
  3  4  1  0
  4  5  1  0
  6  5  1  0
  6  2  1  0
  6  7  1  0
  7  8  1  0
  8  9  1  0
  3  9  1  0
  8 10  1  0
 10 11  1  0
 11 12  2  0
 11 13  1  0
 13 14  1  0
 14 15  1  0
 13 16  1  0
 16 17  2  0
 17 18  1  0
 18 19  2  0
 19 20  1  0
 20 21  2  0
 16 21  1  0
 22 23  1  0
 24 23  1  0
 24 25  1  0
 25 26  1  0
 27 26  1  0
 27 23  1  0
 27 28  1  0
 28 29  1  0
 29 30  1  0
 24 30  1  0
 29 31  1  0
 31 32  1  0
 32 33  2  0
 32 34  1  0
 34 35  1  0
 35 36  1  0
 34 37  1  0
 37 38  2  0
 38 39  1  0
 39 40  2  0
 40 41  1  0
 41 42  2  0
 37 42  1  0
 43 44  2  0
 43 45  1  0
 43 46  1  0
 43 47  2  0
  1 50  1  0
  1 51  1  0
  1 52  1  0
  3 53  1  6
  4 54  1  0
  4 55  1  0
  5 56  1  0
  5 57  1  0
  6 58  1  1
  7 59  1  0
  7 60  1  0
  8 61  1  1
  9 62  1  0
  9 63  1  0
 13 64  1  6
 14 65  1  0
 14 66  1  0
 15 67  1  0
 17 68  1  0
 18 69  1  0
 19 70  1  0
 20 71  1  0
 21 72  1  0
 22 73  1  0
 22 74  1  0
 22 75  1  0
 24 76  1  1
 25 77  1  0
 25 78  1  0
 26 79  1  0
 26 80  1  0
 27 81  1  6
 28 82  1  0
 28 83  1  0
 29 84  1  1
 30 85  1  0
 30 86  1  0
 34 87  1  1
 35 88  1  0
 35 89  1  0
 36 90  1  0
 38 91  1  0
 39 92  1  0
 40 93  1  0
 41 94  1  0
 42 95  1  0
 45 96  1  0
 46 97  1  0
 48 98  1  0
 48 99  1  0
 49100  1  0
 49101  1  0
M  END
$$$$
