
     RDKit          3D

 52 55  0  0  0  0  0  0  0  0999 V2000
    4.3329   -1.9937    1.2739 C   0  0  0  0  0  0  0  0  0  0  0  0
    4.0309   -0.6936    0.8083 N   0  0  0  0  0  0  0  0  0  0  0  0
    5.7309   -2.1080    1.2649 N   0  0  0  0  0  0  0  0  0  0  0  0
    5.2374   -0.0485    0.4840 C   0  0  0  0  0  0  0  0  0  0  0  0
    6.2792   -0.9292    0.7781 C   0  0  0  0  0  0  0  0  0  0  0  0
    2.6981   -0.1545    0.5907 C   0  0  0  0  0  0  0  0  0  0  0  0
    0.0082    0.3514    0.2306 N   0  0  0  0  0  0  0  0  0  0  0  0
    3.5594   -2.8725    1.6160 O   0  0  0  0  0  0  0  0  0  0  0  0
    1.9853   -0.8485   -0.5829 C   0  0  0  0  0  0  0  0  0  0  0  0
    1.8352   -0.2033    1.8546 C   0  0  0  0  0  0  0  0  0  0  0  0
   -4.3468   -0.1505   -0.9915 C   0  0  0  0  0  0  0  0  0  0  0  0
   -5.7344    0.3252   -1.2863 C   0  0  0  0  0  0  0  0  0  0  0  0
   -3.6552   -0.5776   -1.9132 O   0  0  0  0  0  0  0  0  0  0  0  0
    0.4807    0.4745    1.6137 C   0  0  0  0  0  0  0  0  0  0  0  0
    0.4632   -0.8772   -0.4151 C   0  0  0  0  0  0  0  0  0  0  0  0
   -6.6227    0.7228   -0.2765 C   0  0  0  0  0  0  0  0  0  0  0  0
   -6.1542    0.3657   -2.6263 C   0  0  0  0  0  0  0  0  0  0  0  0
   -8.3057    1.1944   -1.9398 C   0  0  0  0  0  0  0  0  0  0  0  0
   -7.4404    0.8015   -2.9524 C   0  0  0  0  0  0  0  0  0  0  0  0
   -7.9096    1.1586   -0.6075 C   0  0  0  0  0  0  0  0  0  0  0  0
   -9.5394    1.6124   -2.2495 F   0  0  0  0  0  0  0  0  0  0  0  0
   -1.4281    0.6079    0.0733 C   0  0  0  0  0  0  0  0  0  0  0  0
    5.4898    1.2030   -0.0366 C   0  0  0  0  0  0  0  0  0  0  0  0
    7.6034   -0.6120    0.5771 C   0  0  0  0  0  0  0  0  0  0  0  0
   -2.3733   -0.4902    0.5911 C   0  0  0  0  0  0  0  0  0  0  0  0
   -3.8476   -0.0988    0.4441 C   0  0  0  0  0  0  0  0  0  0  0  0
    6.8294    1.5520   -0.2507 C   0  0  0  0  0  0  0  0  0  0  0  0
    7.8747    0.6549    0.0536 C   0  0  0  0  0  0  0  0  0  0  0  0
    6.2220   -2.9413    1.5421 H   0  0  0  0  0  0  0  0  0  0  0  0
    2.8064    0.9059    0.3310 H   0  0  0  0  0  0  0  0  0  0  0  0
    2.3371   -1.8785   -0.7164 H   0  0  0  0  0  0  0  0  0  0  0  0
    2.2486   -0.3193   -1.5082 H   0  0  0  0  0  0  0  0  0  0  0  0
    1.6639   -1.2434    2.1578 H   0  0  0  0  0  0  0  0  0  0  0  0
    2.3488    0.2847    2.6918 H   0  0  0  0  0  0  0  0  0  0  0  0
    0.5733    1.5427    1.8447 H   0  0  0  0  0  0  0  0  0  0  0  0
   -0.2309    0.0582    2.3351 H   0  0  0  0  0  0  0  0  0  0  0  0
    0.0153   -0.9873   -1.4104 H   0  0  0  0  0  0  0  0  0  0  0  0
    0.1686   -1.7598    0.1669 H   0  0  0  0  0  0  0  0  0  0  0  0
   -6.3441    0.6995    0.7729 H   0  0  0  0  0  0  0  0  0  0  0  0
   -5.4792    0.0572   -3.4234 H   0  0  0  0  0  0  0  0  0  0  0  0
   -7.7687    0.8345   -3.9867 H   0  0  0  0  0  0  0  0  0  0  0  0
   -8.6068    1.4686    0.1653 H   0  0  0  0  0  0  0  0  0  0  0  0
   -1.6702    1.5583    0.5665 H   0  0  0  0  0  0  0  0  0  0  0  0
   -1.6209    0.7834   -0.9917 H   0  0  0  0  0  0  0  0  0  0  0  0
    4.6980    1.9010   -0.2780 H   0  0  0  0  0  0  0  0  0  0  0  0
    8.4010   -1.3072    0.8082 H   0  0  0  0  0  0  0  0  0  0  0  0
   -2.1819   -0.6736    1.6541 H   0  0  0  0  0  0  0  0  0  0  0  0
   -2.1892   -1.4346    0.0663 H   0  0  0  0  0  0  0  0  0  0  0  0
   -3.9985    0.9085    0.8470 H   0  0  0  0  0  0  0  0  0  0  0  0
   -4.4485   -0.8079    1.0256 H   0  0  0  0  0  0  0  0  0  0  0  0
    7.0692    2.5313   -0.6606 H   0  0  0  0  0  0  0  0  0  0  0  0
    8.9053    0.9548   -0.1255 H   0  0  0  0  0  0  0  0  0  0  0  0
  2  1  1  0
  3  1  1  0
  4  2  1  0
  5  3  1  0
  6  2  1  0
  7 14  1  0
  8  1  2  0
  9  6  1  0
 10  6  1  0
 11 26  1  0
 12 11  1  0
 13 11  2  0
 14 10  1  0
 15  9  1  0
 16 12  2  0
 17 12  1  0
 18 19  1  0
 19 17  2  0
 20 16  1  0
 21 18  1  0
 22  7  1  0
 23  4  2  0
 24  5  2  0
 25 22  1  0
 26 25  1  0
 27 23  1  0
 28 24  1  0
  5  4  1  0
 28 27  2  0
 15  7  1  0
 20 18  2  0
  3 29  1  0
  6 30  1  0
  9 31  1  0
  9 32  1  0
 10 33  1  0
 10 34  1  0
 14 35  1  0
 14 36  1  0
 15 37  1  0
 15 38  1  0
 16 39  1  0
 17 40  1  0
 19 41  1  0
 20 42  1  0
 22 43  1  0
 22 44  1  0
 23 45  1  0
 24 46  1  0
 25 47  1  0
 25 48  1  0
 26 49  1  0
 26 50  1  0
 27 51  1  0
 28 52  1  0
M  END
$$$$
