
     RDKit          3D

 52 55  0  0  0  0  0  0  0  0999 V2000
    4.1761    1.8488   -1.0571 C   0  0  0  0  0  0  0  0  0  0  0  0
    3.8498    0.5876   -0.5045 N   0  0  0  0  0  0  0  0  0  0  0  0
    5.5761    1.9167   -1.1029 N   0  0  0  0  0  0  0  0  0  0  0  0
    5.0476   -0.0744   -0.1759 C   0  0  0  0  0  0  0  0  0  0  0  0
    6.1056    0.7530   -0.5581 C   0  0  0  0  0  0  0  0  0  0  0  0
    2.5059    0.1335   -0.1760 C   0  0  0  0  0  0  0  0  0  0  0  0
   -0.3642    0.5440    0.0625 N   0  0  0  0  0  0  0  0  0  0  0  0
    3.4153    2.7299   -1.4236 O   0  0  0  0  0  0  0  0  0  0  0  0
    1.5659    0.1898   -1.3925 C   0  0  0  0  0  0  0  0  0  0  0  0
    1.9497    0.9191    1.0143 C   0  0  0  0  0  0  0  0  0  0  0  0
   -3.8572   -1.1519    0.4874 C   0  0  0  0  0  0  0  0  0  0  0  0
   -5.3534   -1.1614    0.4197 C   0  0  0  0  0  0  0  0  0  0  0  0
   -3.3063   -1.4787    1.5385 O   0  0  0  0  0  0  0  0  0  0  0  0
    0.4755    0.6060    1.2703 C   0  0  0  0  0  0  0  0  0  0  0  0
    0.3210    1.0377   -1.1343 C   0  0  0  0  0  0  0  0  0  0  0  0
   -6.0706   -0.5971   -0.6459 C   0  0  0  0  0  0  0  0  0  0  0  0
   -6.0575   -1.7565    1.4808 C   0  0  0  0  0  0  0  0  0  0  0  0
   -8.1473   -1.2375    0.4060 C   0  0  0  0  0  0  0  0  0  0  0  0
   -7.4544   -1.7958    1.4725 C   0  0  0  0  0  0  0  0  0  0  0  0
   -7.4694   -0.6392   -0.6509 C   0  0  0  0  0  0  0  0  0  0  0  0
   -9.4860   -1.2776    0.3932 F   0  0  0  0  0  0  0  0  0  0  0  0
   -1.6693    1.1794    0.2944 C   0  0  0  0  0  0  0  0  0  0  0  0
    5.2809   -1.2964    0.4211 C   0  0  0  0  0  0  0  0  0  0  0  0
    7.4276    0.4109   -0.3718 C   0  0  0  0  0  0  0  0  0  0  0  0
   -2.7520    0.7685   -0.7171 C   0  0  0  0  0  0  0  0  0  0  0  0
   -3.0459   -0.7317   -0.7242 C   0  0  0  0  0  0  0  0  0  0  0  0
    6.6175   -1.6699    0.6223 C   0  0  0  0  0  0  0  0  0  0  0  0
    7.6790   -0.8259    0.2302 C   0  0  0  0  0  0  0  0  0  0  0  0
    6.0839    2.7153   -1.4445 H   0  0  0  0  0  0  0  0  0  0  0  0
    2.5708   -0.9210    0.1188 H   0  0  0  0  0  0  0  0  0  0  0  0
    2.0754    0.5525   -2.2930 H   0  0  0  0  0  0  0  0  0  0  0  0
    1.2499   -0.8347   -1.6339 H   0  0  0  0  0  0  0  0  0  0  0  0
    2.5349    0.6984    1.9155 H   0  0  0  0  0  0  0  0  0  0  0  0
    2.0584    1.9981    0.8446 H   0  0  0  0  0  0  0  0  0  0  0  0
    0.1054    1.3557    1.9841 H   0  0  0  0  0  0  0  0  0  0  0  0
    0.3978   -0.3656    1.7755 H   0  0  0  0  0  0  0  0  0  0  0  0
    0.5816    2.0997   -1.0401 H   0  0  0  0  0  0  0  0  0  0  0  0
   -0.3190    0.9450   -2.0181 H   0  0  0  0  0  0  0  0  0  0  0  0
   -5.5719   -0.1129   -1.4801 H   0  0  0  0  0  0  0  0  0  0  0  0
   -5.5184   -2.1955    2.3201 H   0  0  0  0  0  0  0  0  0  0  0  0
   -8.0007   -2.2575    2.2897 H   0  0  0  0  0  0  0  0  0  0  0  0
   -8.0345   -0.2066   -1.4717 H   0  0  0  0  0  0  0  0  0  0  0  0
   -1.5637    2.2725    0.2889 H   0  0  0  0  0  0  0  0  0  0  0  0
   -2.0379    0.9117    1.2932 H   0  0  0  0  0  0  0  0  0  0  0  0
    4.4764   -1.9527    0.7291 H   0  0  0  0  0  0  0  0  0  0  0  0
    8.2370    1.0674   -0.6687 H   0  0  0  0  0  0  0  0  0  0  0  0
   -2.4614    1.0800   -1.7266 H   0  0  0  0  0  0  0  0  0  0  0  0
   -3.6666    1.3275   -0.4812 H   0  0  0  0  0  0  0  0  0  0  0  0
   -2.1260   -1.3273   -0.7406 H   0  0  0  0  0  0  0  0  0  0  0  0
   -3.5782   -1.0122   -1.6393 H   0  0  0  0  0  0  0  0  0  0  0  0
    6.8414   -2.6256    1.0938 H   0  0  0  0  0  0  0  0  0  0  0  0
    8.7050   -1.1432    0.4076 H   0  0  0  0  0  0  0  0  0  0  0  0
  2  1  1  0
  3  1  1  0
  4  2  1  0
  5  3  1  0
  6  2  1  0
  7 14  1  0
  8  1  2  0
  9  6  1  0
 10  6  1  0
 11 26  1  0
 12 11  1  0
 13 11  2  0
 14 10  1  0
 15  9  1  0
 16 12  2  0
 17 12  1  0
 18 19  1  0
 19 17  2  0
 20 16  1  0
 21 18  1  0
 22  7  1  0
 23  4  2  0
 24  5  2  0
 25 22  1  0
 26 25  1  0
 27 23  1  0
 28 24  1  0
  5  4  1  0
 28 27  2  0
 15  7  1  0
 20 18  2  0
  3 29  1  0
  6 30  1  0
  9 31  1  0
  9 32  1  0
 10 33  1  0
 10 34  1  0
 14 35  1  0
 14 36  1  0
 15 37  1  0
 15 38  1  0
 16 39  1  0
 17 40  1  0
 19 41  1  0
 20 42  1  0
 22 43  1  0
 22 44  1  0
 23 45  1  0
 24 46  1  0
 25 47  1  0
 25 48  1  0
 26 49  1  0
 26 50  1  0
 27 51  1  0
 28 52  1  0
M  END
$$$$
