
     RDKit          3D

 52 55  0  0  0  0  0  0  0  0999 V2000
   -5.2578    1.9129    0.4824 C   0  0  0  0  0  0  0  0  0  0  0  0
   -4.3061    0.9102    0.1836 N   0  0  0  0  0  0  0  0  0  0  0  0
   -6.5200    1.3537    0.2439 N   0  0  0  0  0  0  0  0  0  0  0  0
   -4.9954   -0.2452   -0.2294 C   0  0  0  0  0  0  0  0  0  0  0  0
   -6.3612    0.0440   -0.1879 C   0  0  0  0  0  0  0  0  0  0  0  0
   -2.8731    1.0978    0.3065 C   0  0  0  0  0  0  0  0  0  0  0  0
   -0.0781    0.2752    0.1638 N   0  0  0  0  0  0  0  0  0  0  0  0
   -5.0530    3.0500    0.8738 O   0  0  0  0  0  0  0  0  0  0  0  0
   -2.1324    0.9882   -1.0272 C   0  0  0  0  0  0  0  0  0  0  0  0
   -2.2384    0.2024    1.3720 C   0  0  0  0  0  0  0  0  0  0  0  0
    4.3289   -0.6842   -0.3002 C   0  0  0  0  0  0  0  0  0  0  0  0
    5.8008   -0.4173   -0.3422 C   0  0  0  0  0  0  0  0  0  0  0  0
    3.7555   -1.0148   -1.3354 O   0  0  0  0  0  0  0  0  0  0  0  0
   -0.7343    0.4578    1.4685 C   0  0  0  0  0  0  0  0  0  0  0  0
   -0.6341    1.2104   -0.8305 C   0  0  0  0  0  0  0  0  0  0  0  0
    6.5463   -0.1332    0.8113 C   0  0  0  0  0  0  0  0  0  0  0  0
    6.4502   -0.4589   -1.5872 C   0  0  0  0  0  0  0  0  0  0  0  0
    8.5445    0.0661   -0.5263 C   0  0  0  0  0  0  0  0  0  0  0  0
    7.8225   -0.2162   -1.6786 C   0  0  0  0  0  0  0  0  0  0  0  0
    7.9203    0.1091    0.7153 C   0  0  0  0  0  0  0  0  0  0  0  0
    9.8603    0.2989   -0.6109 F   0  0  0  0  0  0  0  0  0  0  0  0
    1.3848    0.4542    0.2516 C   0  0  0  0  0  0  0  0  0  0  0  0
   -4.5509   -1.4887   -0.6256 C   0  0  0  0  0  0  0  0  0  0  0  0
   -7.3317   -0.8700   -0.5320 C   0  0  0  0  0  0  0  0  0  0  0  0
    2.0841   -0.7355    0.9283 C   0  0  0  0  0  0  0  0  0  0  0  0
    3.6008   -0.5417    1.0273 C   0  0  0  0  0  0  0  0  0  0  0  0
   -5.5171   -2.4388   -0.9819 C   0  0  0  0  0  0  0  0  0  0  0  0
   -6.8926   -2.1330   -0.9357 C   0  0  0  0  0  0  0  0  0  0  0  0
   -7.3837    1.8524    0.3764 H   0  0  0  0  0  0  0  0  0  0  0  0
   -2.7322    2.1320    0.6514 H   0  0  0  0  0  0  0  0  0  0  0  0
   -2.5243    1.7293   -1.7346 H   0  0  0  0  0  0  0  0  0  0  0  0
   -2.2894    0.0078   -1.4893 H   0  0  0  0  0  0  0  0  0  0  0  0
   -2.4066   -0.8571    1.1505 H   0  0  0  0  0  0  0  0  0  0  0  0
   -2.7060    0.3923    2.3460 H   0  0  0  0  0  0  0  0  0  0  0  0
   -0.5542    1.4687    1.8572 H   0  0  0  0  0  0  0  0  0  0  0  0
   -0.3347   -0.2461    2.2055 H   0  0  0  0  0  0  0  0  0  0  0  0
   -0.4466    2.2509   -0.5335 H   0  0  0  0  0  0  0  0  0  0  0  0
   -0.1457    1.0575   -1.8009 H   0  0  0  0  0  0  0  0  0  0  0  0
    6.0881   -0.0986    1.7951 H   0  0  0  0  0  0  0  0  0  0  0  0
    5.8882   -0.6813   -2.4933 H   0  0  0  0  0  0  0  0  0  0  0  0
    8.3280   -0.2472   -2.6388 H   0  0  0  0  0  0  0  0  0  0  0  0
    8.5086    0.3295    1.6011 H   0  0  0  0  0  0  0  0  0  0  0  0
    1.6284    1.3880    0.7750 H   0  0  0  0  0  0  0  0  0  0  0  0
    1.7939    0.5493   -0.7612 H   0  0  0  0  0  0  0  0  0  0  0  0
   -3.4994   -1.7438   -0.6679 H   0  0  0  0  0  0  0  0  0  0  0  0
   -8.3866   -0.6278   -0.4939 H   0  0  0  0  0  0  0  0  0  0  0  0
    1.7064   -0.8625    1.9485 H   0  0  0  0  0  0  0  0  0  0  0  0
    1.8548   -1.6602    0.3845 H   0  0  0  0  0  0  0  0  0  0  0  0
    3.9971   -1.3100    1.7017 H   0  0  0  0  0  0  0  0  0  0  0  0
    3.8120    0.4459    1.4518 H   0  0  0  0  0  0  0  0  0  0  0  0
   -5.2007   -3.4304   -1.3003 H   0  0  0  0  0  0  0  0  0  0  0  0
   -7.6188   -2.8921   -1.2188 H   0  0  0  0  0  0  0  0  0  0  0  0
  2  1  1  0
  3  1  1  0
  4  2  1  0
  5  3  1  0
  6  2  1  0
  7 14  1  0
  8  1  2  0
  9  6  1  0
 10  6  1  0
 11 26  1  0
 12 11  1  0
 13 11  2  0
 14 10  1  0
 15  9  1  0
 16 12  2  0
 17 12  1  0
 18 19  1  0
 19 17  2  0
 20 16  1  0
 21 18  1  0
 22  7  1  0
 23  4  2  0
 24  5  2  0
 25 22  1  0
 26 25  1  0
 27 23  1  0
 28 24  1  0
  5  4  1  0
 28 27  2  0
 15  7  1  0
 20 18  2  0
  3 29  1  0
  6 30  1  0
  9 31  1  0
  9 32  1  0
 10 33  1  0
 10 34  1  0
 14 35  1  0
 14 36  1  0
 15 37  1  0
 15 38  1  0
 16 39  1  0
 17 40  1  0
 19 41  1  0
 20 42  1  0
 22 43  1  0
 22 44  1  0
 23 45  1  0
 24 46  1  0
 25 47  1  0
 25 48  1  0
 26 49  1  0
 26 50  1  0
 27 51  1  0
 28 52  1  0
M  END
$$$$
