
     RDKit          3D

 98 97  0  0  0  0  0  0  0  0999 V2000
   -6.0817   -0.6843   -0.2291 C   0  0  0  0  0  0  0  0  0  0  0  0
   -6.4601   -1.4376   -1.4651 N   0  0  0  0  0  0  0  0  0  0  0  0
   -4.5290   -0.6129   -0.2083 C   0  0  0  0  0  0  0  0  0  0  0  0
   -2.3595   -0.0614    0.9248 C   0  0  0  0  0  0  0  0  0  0  0  0
    0.4217    0.1651    0.5393 C   0  0  0  0  0  0  0  0  0  0  0  0
   -3.8572   -0.1853    1.1041 C   0  0  0  0  0  0  0  0  0  0  0  0
   -1.7991    1.1437    0.4836 C   0  0  0  0  0  0  0  0  0  0  0  0
   -1.5188   -1.1551    1.1629 C   0  0  0  0  0  0  0  0  0  0  0  0
   -0.4204    1.2560    0.2922 C   0  0  0  0  0  0  0  0  0  0  0  0
   -0.1400   -1.0427    0.9719 C   0  0  0  0  0  0  0  0  0  0  0  0
   -6.7415    0.7216   -0.3461 C   0  0  0  0  0  0  0  0  0  0  0  0
   -6.6661   -1.4742    0.9748 C   0  0  0  0  0  0  0  0  0  0  0  0
   -6.5468   -0.7946    2.2159 O   0  0  0  0  0  0  0  0  0  0  0  0
   -6.1982    1.6972    0.5304 O   0  0  0  0  0  0  0  0  0  0  0  0
    1.9091    0.2775    0.3125 C   0  0  0  0  0  0  0  0  0  0  0  0
    2.2822   -0.0469   -1.1367 C   0  0  0  0  0  0  0  0  0  0  0  0
    6.6231   -0.2373    0.5884 C   0  0  0  0  0  0  0  0  0  0  0  0
    6.8680    1.0328   -0.2242 C   0  0  0  0  0  0  0  0  0  0  0  0
    3.7947   -0.1201   -1.3670 C   0  0  0  0  0  0  0  0  0  0  0  0
    4.4965    1.2345   -1.2210 C   0  0  0  0  0  0  0  0  0  0  0  0
    6.0044    1.1532   -1.4847 C   0  0  0  0  0  0  0  0  0  0  0  0
    7.6181   -0.3678    1.7316 C   0  0  0  0  0  0  0  0  0  0  0  0
    5.9412   -0.1846    2.2369 S   0  0  0  0  0  0  0  0  0  0  0  0
    5.4532   -0.5263    0.7270 O   0  0  0  0  0  0  0  0  0  0  0  0
    5.3918    1.3154    2.4396 O   0  0  0  0  0  0  0  0  0  0  0  0
    5.2519   -1.0433    3.1714 O   0  0  0  0  0  0  0  0  0  0  0  0
    7.3811   -0.0619    2.2206 O   0  0  0  0  0  0  0  0  0  0  0  0
    4.1041   -0.9281    0.5395 C   0  0  0  0  0  0  0  0  0  0  0  0
    3.8397   -1.0349   -0.9593 C   0  0  0  0  0  0  0  0  0  0  0  0
    2.4162   -1.4812   -1.2977 C   0  0  0  0  0  0  0  0  0  0  0  0
    1.4353   -0.3404   -1.5913 C   0  0  0  0  0  0  0  0  0  0  0  0
    1.1819    0.5923   -0.4051 C   0  0  0  0  0  0  0  0  0  0  0  0
    0.0422    1.5845   -0.6653 C   0  0  0  0  0  0  0  0  0  0  0  0
   -1.3013    1.1933   -0.0365 C   0  0  0  0  0  0  0  0  0  0  0  0
   -1.8888   -0.1110   -0.5780 C   0  0  0  0  0  0  0  0  0  0  0  0
   -3.2575   -0.4531    0.0230 C   0  0  0  0  0  0  0  0  0  0  0  0
   -4.3695    0.5001   -0.4243 C   0  0  0  0  0  0  0  0  0  0  0  0
   -5.7644    0.0450    0.0122 C   0  0  0  0  0  0  0  0  0  0  0  0
   -5.9571    0.0497    1.5208 C   0  0  0  0  0  0  0  0  0  0  0  0
   -6.0252   -2.3608   -1.4413 H   0  0  0  0  0  0  0  0  0  0  0  0
   -6.0497   -0.9683   -2.2744 H   0  0  0  0  0  0  0  0  0  0  0  0
   -4.1260   -1.6042   -0.4646 H   0  0  0  0  0  0  0  0  0  0  0  0
   -4.1994    0.0523   -1.0196 H   0  0  0  0  0  0  0  0  0  0  0  0
   -4.2415    0.7675    1.4773 H   0  0  0  0  0  0  0  0  0  0  0  0
   -4.0488   -0.9241    1.8907 H   0  0  0  0  0  0  0  0  0  0  0  0
   -2.4386    2.0016    0.2867 H   0  0  0  0  0  0  0  0  0  0  0  0
   -1.9338   -2.1023    1.4985 H   0  0  0  0  0  0  0  0  0  0  0  0
   -0.0082    2.2015   -0.0524 H   0  0  0  0  0  0  0  0  0  0  0  0
    0.4941   -1.9055    1.1612 H   0  0  0  0  0  0  0  0  0  0  0  0
   -6.6069    1.1177   -1.3605 H   0  0  0  0  0  0  0  0  0  0  0  0
   -7.8212    0.6510   -0.1663 H   0  0  0  0  0  0  0  0  0  0  0  0
   -7.7341   -1.6662    0.8144 H   0  0  0  0  0  0  0  0  0  0  0  0
   -6.1660   -2.4456    1.0704 H   0  0  0  0  0  0  0  0  0  0  0  0
   -6.9765   -1.3478    2.8893 H   0  0  0  0  0  0  0  0  0  0  0  0
   -6.8270    2.4370    0.5582 H   0  0  0  0  0  0  0  0  0  0  0  0
    2.2326    1.2903    0.5792 H   0  0  0  0  0  0  0  0  0  0  0  0
    2.4333   -0.3993    0.9992 H   0  0  0  0  0  0  0  0  0  0  0  0
    1.8506   -1.0172   -1.4152 H   0  0  0  0  0  0  0  0  0  0  0  0
    1.8391    0.6939   -1.8144 H   0  0  0  0  0  0  0  0  0  0  0  0
    6.7030   -1.1181   -0.0588 H   0  0  0  0  0  0  0  0  0  0  0  0
    5.6132   -0.2236    1.0113 H   0  0  0  0  0  0  0  0  0  0  0  0
    6.7034    1.9112    0.4125 H   0  0  0  0  0  0  0  0  0  0  0  0
    7.9209    1.0653   -0.5306 H   0  0  0  0  0  0  0  0  0  0  0  0
    3.9662   -0.4984   -2.3831 H   0  0  0  0  0  0  0  0  0  0  0  0
    4.2265   -0.8594   -0.6854 H   0  0  0  0  0  0  0  0  0  0  0  0
    4.3119    1.6729   -0.2351 H   0  0  0  0  0  0  0  0  0  0  0  0
    4.0561    1.9197   -1.9566 H   0  0  0  0  0  0  0  0  0  0  0  0
    6.2351    0.3346   -2.1771 H   0  0  0  0  0  0  0  0  0  0  0  0
    6.3082    2.0779   -1.9927 H   0  0  0  0  0  0  0  0  0  0  0  0
    8.6436   -0.4340    1.3557 H   0  0  0  0  0  0  0  0  0  0  0  0
    7.4107   -1.2717    2.3120 H   0  0  0  0  0  0  0  0  0  0  0  0
    7.5549    0.4912    2.4070 H   0  0  0  0  0  0  0  0  0  0  0  0
    6.0938    1.9198    2.1231 H   0  0  0  0  0  0  0  0  0  0  0  0
    3.4397   -0.1976    1.0076 H   0  0  0  0  0  0  0  0  0  0  0  0
    3.9477   -1.9020    1.0159 H   0  0  0  0  0  0  0  0  0  0  0  0
    4.0886   -0.0909   -1.4588 H   0  0  0  0  0  0  0  0  0  0  0  0
    4.5446   -1.7714   -1.3672 H   0  0  0  0  0  0  0  0  0  0  0  0
    2.4655   -2.0990   -2.2040 H   0  0  0  0  0  0  0  0  0  0  0  0
    2.0143   -2.1276   -0.5090 H   0  0  0  0  0  0  0  0  0  0  0  0
    1.8090    0.2469   -2.4398 H   0  0  0  0  0  0  0  0  0  0  0  0
    0.4926   -0.7885   -1.9227 H   0  0  0  0  0  0  0  0  0  0  0  0
    0.9882    0.0159    0.5064 H   0  0  0  0  0  0  0  0  0  0  0  0
    2.0945    1.1746   -0.2290 H   0  0  0  0  0  0  0  0  0  0  0  0
    0.3295    2.5501   -0.2288 H   0  0  0  0  0  0  0  0  0  0  0  0
   -0.0837    1.7601   -1.7401 H   0  0  0  0  0  0  0  0  0  0  0  0
   -1.1828    1.1177    1.0517 H   0  0  0  0  0  0  0  0  0  0  0  0
   -2.0002    2.0175   -0.2185 H   0  0  0  0  0  0  0  0  0  0  0  0
   -1.9667   -0.0612   -1.6706 H   0  0  0  0  0  0  0  0  0  0  0  0
   -1.2104   -0.9382   -0.3402 H   0  0  0  0  0  0  0  0  0  0  0  0
   -3.1795   -0.4602    1.1162 H   0  0  0  0  0  0  0  0  0  0  0  0
   -3.5185   -1.4733   -0.2835 H   0  0  0  0  0  0  0  0  0  0  0  0
   -4.3600    0.5748   -1.5184 H   0  0  0  0  0  0  0  0  0  0  0  0
   -4.1854    1.5072   -0.0349 H   0  0  0  0  0  0  0  0  0  0  0  0
   -6.5052    0.7181   -0.4364 H   0  0  0  0  0  0  0  0  0  0  0  0
   -5.9706   -0.9578   -0.3792 H   0  0  0  0  0  0  0  0  0  0  0  0
   -5.7219    1.0315    1.9433 H   0  0  0  0  0  0  0  0  0  0  0  0
   -5.3255   -0.6987    2.0083 H   0  0  0  0  0  0  0  0  0  0  0  0
   -6.9978   -0.1835    1.7674 H   0  0  0  0  0  0  0  0  0  0  0  0
  1  2  1  0
  1  3  1  0
  3  6  1  0
  4  6  1  0
  4  7  2  0
  4  8  1  0
  5  9  2  0
  7  9  1  0
  5 10  1  0
  8 10  2  0
  1 11  1  0
  1 12  1  0
 12 13  1  0
 11 14  1  0
  5 15  1  0
 15 16  1  0
 17 18  1  0
 16 19  1  0
 19 20  1  0
 18 21  1  0
 20 21  1  0
 17 22  1  0
 23 24  1  0
 23 25  1  0
 23 26  2  0
 23 27  2  0
 24 28  1  0
 28 29  1  0
 29 30  1  0
 30 31  1  0
 31 32  1  0
 32 33  1  0
 33 34  1  0
 34 35  1  0
 35 36  1  0
 36 37  1  0
 37 38  1  0
 38 39  1  0
  2 40  1  0
  2 41  1  0
  3 42  1  0
  3 43  1  0
  6 44  1  0
  6 45  1  0
  7 46  1  0
  8 47  1  0
  9 48  1  0
 10 49  1  0
 11 50  1  0
 11 51  1  0
 12 52  1  0
 12 53  1  0
 13 54  1  0
 14 55  1  0
 15 56  1  0
 15 57  1  0
 16 58  1  0
 16 59  1  0
 17 60  1  0
 17 61  1  0
 18 62  1  0
 18 63  1  0
 19 64  1  0
 19 65  1  0
 20 66  1  0
 20 67  1  0
 21 68  1  0
 21 69  1  0
 22 70  1  0
 22 71  1  0
 22 72  1  0
 25 73  1  0
 28 74  1  0
 28 75  1  0
 29 76  1  0
 29 77  1  0
 30 78  1  0
 30 79  1  0
 31 80  1  0
 31 81  1  0
 32 82  1  0
 32 83  1  0
 33 84  1  0
 33 85  1  0
 34 86  1  0
 34 87  1  0
 35 88  1  0
 35 89  1  0
 36 90  1  0
 36 91  1  0
 37 92  1  0
 37 93  1  0
 38 94  1  0
 38 95  1  0
 39 96  1  0
 39 97  1  0
 39 98  1  0
M  END
$$$$
