
     RDKit          3D

 39 38  0  0  0  0  0  0  0  0999 V2000
   -4.2949    0.2962   -1.2569 C   0  0  0  0  0  0  0  0  0  0  0  0
   -3.7246    0.4423    0.0561 N   0  0  0  0  0  0  0  0  0  0  0  0
   -3.3435    0.5637   -2.3713 C   0  0  0  0  0  0  0  0  0  0  0  0
   -1.2734   -0.2743   -1.2430 C   0  0  0  0  0  0  0  0  0  0  0  0
    0.4841   -0.0784    0.9468 C   0  0  0  0  0  0  0  0  0  0  0  0
   -2.1414   -0.3165   -2.4152 C   0  0  0  0  0  0  0  0  0  0  0  0
   -0.2418    0.6697   -1.2409 C   0  0  0  0  0  0  0  0  0  0  0  0
   -1.4099   -1.1136   -0.1374 C   0  0  0  0  0  0  0  0  0  0  0  0
    0.6028    0.7406   -0.1525 C   0  0  0  0  0  0  0  0  0  0  0  0
   -0.5400   -1.0043    0.9272 C   0  0  0  0  0  0  0  0  0  0  0  0
   -5.4253    1.3060   -1.3553 C   0  0  0  0  0  0  0  0  0  0  0  0
   -4.9382   -1.0763   -1.3538 C   0  0  0  0  0  0  0  0  0  0  0  0
   -5.9402   -1.2157   -0.3961 O   0  0  0  0  0  0  0  0  0  0  0  0
   -6.3421    0.9884   -0.3456 O   0  0  0  0  0  0  0  0  0  0  0  0
    1.4342    0.0613    2.0783 C   0  0  0  0  0  0  0  0  0  0  0  0
    2.6625   -0.8000    1.9463 C   0  0  0  0  0  0  0  0  0  0  0  0
    6.7849    0.5139    0.6441 C   0  0  0  0  0  0  0  0  0  0  0  0
    5.9991    0.2296    1.9006 C   0  0  0  0  0  0  0  0  0  0  0  0
    3.4545   -0.4747    0.6991 C   0  0  0  0  0  0  0  0  0  0  0  0
    4.6578   -1.3920    0.6670 C   0  0  0  0  0  0  0  0  0  0  0  0
    5.5339   -1.1956    1.8867 C   0  0  0  0  0  0  0  0  0  0  0  0
    8.0014   -0.3756    0.5159 C   0  0  0  0  0  0  0  0  0  0  0  0
   -4.3257    1.6942   -1.4478 S   0  0  0  0  0  0  0  0  0  0  0  0
   -2.7708    1.3972   -2.0133 O   0  0  0  0  0  0  0  0  0  0  0  0
   -5.3518    2.0913   -2.7247 O   0  0  0  0  0  0  0  0  0  0  0  0
   -4.2606    2.7812   -0.4083 O   0  0  0  0  0  0  0  0  0  0  0  0
   -4.8223    0.4551   -0.7631 O   0  0  0  0  0  0  0  0  0  0  0  0
   -2.6093    0.0225   -2.1517 C   0  0  0  0  0  0  0  0  0  0  0  0
   -1.2021   -0.3007   -2.6671 C   0  0  0  0  0  0  0  0  0  0  0  0
   -0.1637    0.2240   -1.6795 C   0  0  0  0  0  0  0  0  0  0  0  0
   -0.4194   -0.4710   -0.3472 C   0  0  0  0  0  0  0  0  0  0  0  0
    0.5880    0.0076    0.6958 C   0  0  0  0  0  0  0  0  0  0  0  0
    1.9590   -0.3529    0.1521 C   0  0  0  0  0  0  0  0  0  0  0  0
    3.0235    0.0831    1.1190 C   0  0  0  0  0  0  0  0  0  0  0  0
    2.7833   -0.6387    2.4522 C   0  0  0  0  0  0  0  0  0  0  0  0
    2.8790   -2.1136    2.1198 C   0  0  0  0  0  0  0  0  0  0  0  0
    4.2669   -2.3566    1.5691 C   0  0  0  0  0  0  0  0  0  0  0  0
    5.2833   -1.9826    2.6090 C   0  0  0  0  0  0  0  0  0  0  0  0
    5.1428   -0.5404    2.9716 C   0  0  0  0  0  0  0  0  0  0  0  0
  1  2  1  0
  1  3  1  0
  3  6  1  0
  4  6  1  0
  4  7  2  0
  4  8  1  0
  5  9  2  0
  7  9  1  0
  5 10  1  0
  8 10  2  0
  1 11  1  0
  1 12  1  0
 12 13  1  0
 11 14  1  0
  5 15  1  0
 15 16  1  0
 17 18  1  0
 16 19  1  0
 19 20  1  0
 18 21  1  0
 20 21  1  0
 17 22  1  0
 23 24  1  0
 23 25  1  0
 23 26  2  0
 23 27  2  0
 24 28  1  0
 28 29  1  0
 29 30  1  0
 30 31  1  0
 31 32  1  0
 32 33  1  0
 33 34  1  0
 34 35  1  0
 35 36  1  0
 36 37  1  0
 37 38  1  0
 38 39  1  0
M  END
