
     RDKit          3D

 98 97  0  0  0  0  0  0  0  0999 V2000
   -6.0417   -0.0002   -0.5019 C   0  0  0  0  0  0  0  0  0  0  0  0
   -6.8292    0.7449    0.5195 N   0  0  0  0  0  0  0  0  0  0  0  0
   -4.5275    0.0164   -0.1811 C   0  0  0  0  0  0  0  0  0  0  0  0
   -2.3947    1.3166    0.1709 C   0  0  0  0  0  0  0  0  0  0  0  0
    0.3722    1.1842    0.6937 C   0  0  0  0  0  0  0  0  0  0  0  0
   -3.8775    1.4051   -0.1006 C   0  0  0  0  0  0  0  0  0  0  0  0
   -1.4668    1.5090   -0.8593 C   0  0  0  0  0  0  0  0  0  0  0  0
   -1.9258    1.0393    1.4616 C   0  0  0  0  0  0  0  0  0  0  0  0
   -0.0950    1.4424   -0.6004 C   0  0  0  0  0  0  0  0  0  0  0  0
   -0.5556    0.9722    1.7213 C   0  0  0  0  0  0  0  0  0  0  0  0
   -6.5269   -1.4781   -0.4662 C   0  0  0  0  0  0  0  0  0  0  0  0
   -6.3486    0.6025   -1.9032 C   0  0  0  0  0  0  0  0  0  0  0  0
   -7.7582    0.7044   -2.1207 O   0  0  0  0  0  0  0  0  0  0  0  0
   -7.9447   -1.5489   -0.6481 O   0  0  0  0  0  0  0  0  0  0  0  0
    1.8518    1.1224    0.9772 C   0  0  0  0  0  0  0  0  0  0  0  0
    2.4356   -0.2631    0.6929 C   0  0  0  0  0  0  0  0  0  0  0  0
    7.0067   -0.9594   -1.0346 C   0  0  0  0  0  0  0  0  0  0  0  0
    6.9686   -0.8386    0.4885 C   0  0  0  0  0  0  0  0  0  0  0  0
    3.9290   -0.3066    1.0270 C   0  0  0  0  0  0  0  0  0  0  0  0
    4.5253   -1.6843    0.7337 C   0  0  0  0  0  0  0  0  0  0  0  0
    5.9927   -1.8145    1.1529 C   0  0  0  0  0  0  0  0  0  0  0  0
    8.0635   -0.0448   -1.6361 C   0  0  0  0  0  0  0  0  0  0  0  0
    6.2603   -1.0582   -0.7365 S   0  0  0  0  0  0  0  0  0  0  0  0
    5.4906    0.2899   -0.2633 O   0  0  0  0  0  0  0  0  0  0  0  0
    6.0625   -2.0196    0.5395 O   0  0  0  0  0  0  0  0  0  0  0  0
    7.6756   -0.7660   -0.7764 O   0  0  0  0  0  0  0  0  0  0  0  0
    5.5631   -1.6489   -1.8548 O   0  0  0  0  0  0  0  0  0  0  0  0
    4.1059    0.4087   -0.5525 C   0  0  0  0  0  0  0  0  0  0  0  0
    3.5698    1.6240    0.1926 C   0  0  0  0  0  0  0  0  0  0  0  0
    2.1106    1.9529   -0.1252 C   0  0  0  0  0  0  0  0  0  0  0  0
    1.0949    0.8336    0.1313 C   0  0  0  0  0  0  0  0  0  0  0  0
    1.0558    0.3632    1.5854 C   0  0  0  0  0  0  0  0  0  0  0  0
    0.0685   -0.7827    1.8436 C   0  0  0  0  0  0  0  0  0  0  0  0
   -1.4071   -0.4077    1.6645 C   0  0  0  0  0  0  0  0  0  0  0  0
   -1.9758   -0.8424    0.3102 C   0  0  0  0  0  0  0  0  0  0  0  0
   -3.4515   -0.4526    0.1816 C   0  0  0  0  0  0  0  0  0  0  0  0
   -4.0258   -0.8953   -1.1667 C   0  0  0  0  0  0  0  0  0  0  0  0
   -5.5287   -0.6366   -1.2996 C   0  0  0  0  0  0  0  0  0  0  0  0
   -5.8946    0.8391   -1.2966 C   0  0  0  0  0  0  0  0  0  0  0  0
   -6.4747    1.6998    0.5851 H   0  0  0  0  0  0  0  0  0  0  0  0
   -7.7642    0.8874    0.1151 H   0  0  0  0  0  0  0  0  0  0  0  0
   -4.3613   -0.5034    0.7730 H   0  0  0  0  0  0  0  0  0  0  0  0
   -3.9995   -0.5781   -0.9402 H   0  0  0  0  0  0  0  0  0  0  0  0
   -4.0337    1.9630   -1.0307 H   0  0  0  0  0  0  0  0  0  0  0  0
   -4.3339    2.0048    0.6966 H   0  0  0  0  0  0  0  0  0  0  0  0
   -1.8027    1.7189   -1.8718 H   0  0  0  0  0  0  0  0  0  0  0  0
   -2.6287    0.8824    2.2783 H   0  0  0  0  0  0  0  0  0  0  0  0
    0.6073    1.6013   -1.4149 H   0  0  0  0  0  0  0  0  0  0  0  0
   -0.2172    0.7609    2.7333 H   0  0  0  0  0  0  0  0  0  0  0  0
   -6.2874   -1.9606    0.4865 H   0  0  0  0  0  0  0  0  0  0  0  0
   -6.0596   -2.0612   -1.2661 H   0  0  0  0  0  0  0  0  0  0  0  0
   -5.9475    1.6138   -2.0089 H   0  0  0  0  0  0  0  0  0  0  0  0
   -5.9229   -0.0150   -2.7008 H   0  0  0  0  0  0  0  0  0  0  0  0
   -8.1292   -0.1851   -1.9347 H   0  0  0  0  0  0  0  0  0  0  0  0
   -8.3140   -1.2129    0.1939 H   0  0  0  0  0  0  0  0  0  0  0  0
    2.0336    1.3981    2.0232 H   0  0  0  0  0  0  0  0  0  0  0  0
    2.3665    1.8815    0.3754 H   0  0  0  0  0  0  0  0  0  0  0  0
    2.2883   -0.5185   -0.3647 H   0  0  0  0  0  0  0  0  0  0  0  0
    1.9036   -1.0220    1.2814 H   0  0  0  0  0  0  0  0  0  0  0  0
    7.2231   -1.9954   -1.3191 H   0  0  0  0  0  0  0  0  0  0  0  0
    6.0333   -0.6967   -1.4625 H   0  0  0  0  0  0  0  0  0  0  0  0
    7.9708   -1.0390    0.8882 H   0  0  0  0  0  0  0  0  0  0  0  0
    6.7264    0.1899    0.7775 H   0  0  0  0  0  0  0  0  0  0  0  0
    4.4483    0.4591    0.4388 H   0  0  0  0  0  0  0  0  0  0  0  0
    4.0761   -0.0609    2.0867 H   0  0  0  0  0  0  0  0  0  0  0  0
    3.9497   -2.4453    1.2744 H   0  0  0  0  0  0  0  0  0  0  0  0
    4.4173   -1.9189   -0.3317 H   0  0  0  0  0  0  0  0  0  0  0  0
    6.0633   -1.6898    2.2397 H   0  0  0  0  0  0  0  0  0  0  0  0
    6.3209   -2.8395    0.9430 H   0  0  0  0  0  0  0  0  0  0  0  0
    8.0699   -0.1404   -2.7261 H   0  0  0  0  0  0  0  0  0  0  0  0
    7.8629    1.0021   -1.3880 H   0  0  0  0  0  0  0  0  0  0  0  0
    9.0620   -0.3015   -1.2684 H   0  0  0  0  0  0  0  0  0  0  0  0
    6.7679   -1.7942    1.1798 H   0  0  0  0  0  0  0  0  0  0  0  0
    3.5865   -0.4997   -0.2300 H   0  0  0  0  0  0  0  0  0  0  0  0
    3.9739    0.5339   -1.6320 H   0  0  0  0  0  0  0  0  0  0  0  0
    4.1895    2.4951   -0.0573 H   0  0  0  0  0  0  0  0  0  0  0  0
    3.7043    1.4788    1.2717 H   0  0  0  0  0  0  0  0  0  0  0  0
    2.0375    2.2465   -1.1807 H   0  0  0  0  0  0  0  0  0  0  0  0
    1.8210    2.8360    0.4584 H   0  0  0  0  0  0  0  0  0  0  0  0
    0.1104    1.2233   -0.1489 H   0  0  0  0  0  0  0  0  0  0  0  0
    1.2985   -0.0151   -0.5314 H   0  0  0  0  0  0  0  0  0  0  0  0
    2.0505    0.0103    1.8845 H   0  0  0  0  0  0  0  0  0  0  0  0
    0.8145    1.2106    2.2405 H   0  0  0  0  0  0  0  0  0  0  0  0
    0.2087   -1.0936    2.8862 H   0  0  0  0  0  0  0  0  0  0  0  0
    0.3286   -1.6513    1.2272 H   0  0  0  0  0  0  0  0  0  0  0  0
   -1.5552    0.6679    1.8167 H   0  0  0  0  0  0  0  0  0  0  0  0
   -1.9840   -0.9146    2.4485 H   0  0  0  0  0  0  0  0  0  0  0  0
   -1.4073   -0.3877   -0.5080 H   0  0  0  0  0  0  0  0  0  0  0  0
   -1.8732   -1.9301    0.2047 H   0  0  0  0  0  0  0  0  0  0  0  0
   -4.0257   -0.9139    0.9947 H   0  0  0  0  0  0  0  0  0  0  0  0
   -3.5453    0.6338    0.2899 H   0  0  0  0  0  0  0  0  0  0  0  0
   -3.8508   -1.9707   -1.2968 H   0  0  0  0  0  0  0  0  0  0  0  0
   -3.4918   -0.3886   -1.9808 H   0  0  0  0  0  0  0  0  0  0  0  0
   -5.8736   -1.0803   -2.2413 H   0  0  0  0  0  0  0  0  0  0  0  0
   -6.0665   -1.1463   -0.4923 H   0  0  0  0  0  0  0  0  0  0  0  0
   -6.9645    0.9607   -1.4964 H   0  0  0  0  0  0  0  0  0  0  0  0
   -5.6843    1.3033   -0.3280 H   0  0  0  0  0  0  0  0  0  0  0  0
   -5.3442    1.3843   -2.0692 H   0  0  0  0  0  0  0  0  0  0  0  0
  1  2  1  0
  1  3  1  0
  3  6  1  0
  4  6  1  0
  4  7  2  0
  4  8  1  0
  5  9  2  0
  7  9  1  0
  5 10  1  0
  8 10  2  0
  1 11  1  0
  1 12  1  0
 12 13  1  0
 11 14  1  0
  5 15  1  0
 15 16  1  0
 17 18  1  0
 16 19  1  0
 19 20  1  0
 18 21  1  0
 20 21  1  0
 17 22  1  0
 23 24  1  0
 23 25  1  0
 23 26  2  0
 23 27  2  0
 24 28  1  0
 28 29  1  0
 29 30  1  0
 30 31  1  0
 31 32  1  0
 32 33  1  0
 33 34  1  0
 34 35  1  0
 35 36  1  0
 36 37  1  0
 37 38  1  0
 38 39  1  0
  2 40  1  0
  2 41  1  0
  3 42  1  0
  3 43  1  0
  6 44  1  0
  6 45  1  0
  7 46  1  0
  8 47  1  0
  9 48  1  0
 10 49  1  0
 11 50  1  0
 11 51  1  0
 12 52  1  0
 12 53  1  0
 13 54  1  0
 14 55  1  0
 15 56  1  0
 15 57  1  0
 16 58  1  0
 16 59  1  0
 17 60  1  0
 17 61  1  0
 18 62  1  0
 18 63  1  0
 19 64  1  0
 19 65  1  0
 20 66  1  0
 20 67  1  0
 21 68  1  0
 21 69  1  0
 22 70  1  0
 22 71  1  0
 22 72  1  0
 25 73  1  0
 28 74  1  0
 28 75  1  0
 29 76  1  0
 29 77  1  0
 30 78  1  0
 30 79  1  0
 31 80  1  0
 31 81  1  0
 32 82  1  0
 32 83  1  0
 33 84  1  0
 33 85  1  0
 34 86  1  0
 34 87  1  0
 35 88  1  0
 35 89  1  0
 36 90  1  0
 36 91  1  0
 37 92  1  0
 37 93  1  0
 38 94  1  0
 38 95  1  0
 39 96  1  0
 39 97  1  0
 39 98  1  0
M  END
$$$$
