
     RDKit          3D

 98 97  0  0  0  0  0  0  0  0999 V2000
    5.1937    0.8513   -0.2402 C   0  0  0  0  0  0  0  0  0  0  0  0
    3.9880    1.7095   -0.2822 N   0  0  0  0  0  0  0  0  0  0  0  0
    4.8717   -0.4821    0.4924 C   0  0  0  0  0  0  0  0  0  0  0  0
    2.3919   -1.1362    0.3090 C   0  0  0  0  0  0  0  0  0  0  0  0
   -0.2749   -0.7128    1.1268 C   0  0  0  0  0  0  0  0  0  0  0  0
    3.8097   -1.3983   -0.1365 C   0  0  0  0  0  0  0  0  0  0  0  0
    1.4868   -0.4769   -0.5295 C   0  0  0  0  0  0  0  0  0  0  0  0
    1.9523   -1.5704    1.5669 C   0  0  0  0  0  0  0  0  0  0  0  0
    0.1650   -0.2695   -0.1266 C   0  0  0  0  0  0  0  0  0  0  0  0
    0.6310   -1.3642    1.9713 C   0  0  0  0  0  0  0  0  0  0  0  0
    5.6766    0.5991   -1.6916 C   0  0  0  0  0  0  0  0  0  0  0  0
    6.3074    1.6098    0.5433 C   0  0  0  0  0  0  0  0  0  0  0  0
    5.8719    1.9216    1.8695 O   0  0  0  0  0  0  0  0  0  0  0  0
    6.1108    1.8125   -2.3105 O   0  0  0  0  0  0  0  0  0  0  0  0
   -1.7127   -0.5222    1.5429 C   0  0  0  0  0  0  0  0  0  0  0  0
   -2.5920   -1.6732    1.0481 C   0  0  0  0  0  0  0  0  0  0  0  0
   -5.9031    1.3639   -2.1739 C   0  0  0  0  0  0  0  0  0  0  0  0
   -5.8573    1.0292   -0.6821 C   0  0  0  0  0  0  0  0  0  0  0  0
   -4.0354   -1.6017    1.5547 C   0  0  0  0  0  0  0  0  0  0  0  0
   -4.8194   -0.3454    1.1641 C   0  0  0  0  0  0  0  0  0  0  0  0
   -4.9274   -0.1399   -0.3497 C   0  0  0  0  0  0  0  0  0  0  0  0
   -6.4686    0.2453   -3.0350 C   0  0  0  0  0  0  0  0  0  0  0  0
    7.1800   -0.6238   -0.1957 S   0  0  0  0  0  0  0  0  0  0  0  0
    5.6694   -1.2098   -0.3054 O   0  0  0  0  0  0  0  0  0  0  0  0
    7.2180    0.5078   -1.3408 O   0  0  0  0  0  0  0  0  0  0  0  0
    7.3438    0.0436    1.0757 O   0  0  0  0  0  0  0  0  0  0  0  0
    8.1031   -1.6394   -0.6453 O   0  0  0  0  0  0  0  0  0  0  0  0
    4.5960   -0.3374    0.0200 C   0  0  0  0  0  0  0  0  0  0  0  0
    3.2902   -1.1218   -0.0847 C   0  0  0  0  0  0  0  0  0  0  0  0
    2.0627   -0.3242    0.3579 C   0  0  0  0  0  0  0  0  0  0  0  0
    1.6843    0.7933   -0.6157 C   0  0  0  0  0  0  0  0  0  0  0  0
    0.5329    1.6720   -0.1161 C   0  0  0  0  0  0  0  0  0  0  0  0
   -0.7877    0.9537    0.1817 C   0  0  0  0  0  0  0  0  0  0  0  0
   -1.3796    0.2356   -1.0339 C   0  0  0  0  0  0  0  0  0  0  0  0
   -2.7436   -0.4033   -0.7494 C   0  0  0  0  0  0  0  0  0  0  0  0
   -3.8599    0.6252   -0.5490 C   0  0  0  0  0  0  0  0  0  0  0  0
   -5.2516   -0.0048   -0.4333 C   0  0  0  0  0  0  0  0  0  0  0  0
   -5.4438   -0.9750    0.7357 C   0  0  0  0  0  0  0  0  0  0  0  0
   -5.1677   -0.3535    2.0966 C   0  0  0  0  0  0  0  0  0  0  0  0
    4.2384    2.5743   -0.7627 H   0  0  0  0  0  0  0  0  0  0  0  0
    3.7870    1.9840    0.6849 H   0  0  0  0  0  0  0  0  0  0  0  0
    4.6046   -0.2805    1.5387 H   0  0  0  0  0  0  0  0  0  0  0  0
    5.8068   -1.0605    0.5297 H   0  0  0  0  0  0  0  0  0  0  0  0
    4.0449   -2.4338    0.1515 H   0  0  0  0  0  0  0  0  0  0  0  0
    3.8661   -1.4010   -1.2299 H   0  0  0  0  0  0  0  0  0  0  0  0
    1.8086   -0.1109   -1.5016 H   0  0  0  0  0  0  0  0  0  0  0  0
    2.6380   -2.0806    2.2388 H   0  0  0  0  0  0  0  0  0  0  0  0
   -0.5188    0.2397   -0.8010 H   0  0  0  0  0  0  0  0  0  0  0  0
    0.3126   -1.7207    2.9483 H   0  0  0  0  0  0  0  0  0  0  0  0
    6.5200   -0.0986   -1.7041 H   0  0  0  0  0  0  0  0  0  0  0  0
    4.8749    0.1835   -2.3119 H   0  0  0  0  0  0  0  0  0  0  0  0
    6.5712    2.5546    0.0562 H   0  0  0  0  0  0  0  0  0  0  0  0
    7.2118    0.9966    0.6180 H   0  0  0  0  0  0  0  0  0  0  0  0
    6.5839    2.4407    2.2829 H   0  0  0  0  0  0  0  0  0  0  0  0
    6.0587    1.6694   -3.2703 H   0  0  0  0  0  0  0  0  0  0  0  0
   -2.0694    0.4390    1.1529 H   0  0  0  0  0  0  0  0  0  0  0  0
   -1.7693   -0.4492    2.6364 H   0  0  0  0  0  0  0  0  0  0  0  0
   -2.5827   -1.7128   -0.0475 H   0  0  0  0  0  0  0  0  0  0  0  0
   -2.1660   -2.6284    1.3825 H   0  0  0  0  0  0  0  0  0  0  0  0
   -4.8991    1.6221   -2.5273 H   0  0  0  0  0  0  0  0  0  0  0  0
   -6.5232    2.2573   -2.3110 H   0  0  0  0  0  0  0  0  0  0  0  0
   -5.5209    1.9216   -0.1412 H   0  0  0  0  0  0  0  0  0  0  0  0
   -6.8699    0.8084   -0.3264 H   0  0  0  0  0  0  0  0  0  0  0  0
   -4.5748   -2.4834    1.1873 H   0  0  0  0  0  0  0  0  0  0  0  0
   -4.0302   -1.6804    2.6486 H   0  0  0  0  0  0  0  0  0  0  0  0
   -5.8279   -0.4325    1.5897 H   0  0  0  0  0  0  0  0  0  0  0  0
   -4.3670    0.5383    1.6280 H   0  0  0  0  0  0  0  0  0  0  0  0
   -3.9358    0.0603   -0.7700 H   0  0  0  0  0  0  0  0  0  0  0  0
   -5.3029   -1.0593   -0.8120 H   0  0  0  0  0  0  0  0  0  0  0  0
   -5.8072   -0.6248   -3.0434 H   0  0  0  0  0  0  0  0  0  0  0  0
   -7.4533   -0.0670   -2.6793 H   0  0  0  0  0  0  0  0  0  0  0  0
   -6.5750    0.5854   -4.0687 H   0  0  0  0  0  0  0  0  0  0  0  0
    8.0346    0.3504   -1.8613 H   0  0  0  0  0  0  0  0  0  0  0  0
    4.7197    0.0447    1.0404 H   0  0  0  0  0  0  0  0  0  0  0  0
    4.5970    0.5079   -0.6772 H   0  0  0  0  0  0  0  0  0  0  0  0
    3.3746   -2.0198    0.5395 H   0  0  0  0  0  0  0  0  0  0  0  0
    3.1576   -1.4864   -1.1100 H   0  0  0  0  0  0  0  0  0  0  0  0
    2.2347    0.0928    1.3582 H   0  0  0  0  0  0  0  0  0  0  0  0
    1.2219   -1.0227    0.4459 H   0  0  0  0  0  0  0  0  0  0  0  0
    2.5474    1.4489   -0.7820 H   0  0  0  0  0  0  0  0  0  0  0  0
    1.4315    0.3642   -1.5914 H   0  0  0  0  0  0  0  0  0  0  0  0
    0.8565    2.1870    0.7988 H   0  0  0  0  0  0  0  0  0  0  0  0
    0.3483    2.4556   -0.8625 H   0  0  0  0  0  0  0  0  0  0  0  0
   -0.6534    0.2399    1.0030 H   0  0  0  0  0  0  0  0  0  0  0  0
   -1.4933    1.7101    0.5440 H   0  0  0  0  0  0  0  0  0  0  0  0
   -0.6964   -0.5621   -1.3517 H   0  0  0  0  0  0  0  0  0  0  0  0
   -1.4668    0.9310   -1.8780 H   0  0  0  0  0  0  0  0  0  0  0  0
   -3.0055   -1.0480   -1.5987 H   0  0  0  0  0  0  0  0  0  0  0  0
   -2.6587   -1.0538    0.1289 H   0  0  0  0  0  0  0  0  0  0  0  0
   -3.6624    1.2396    0.3357 H   0  0  0  0  0  0  0  0  0  0  0  0
   -3.8708    1.3115   -1.4053 H   0  0  0  0  0  0  0  0  0  0  0  0
   -5.4836   -0.5354   -1.3658 H   0  0  0  0  0  0  0  0  0  0  0  0
   -5.9882    0.8037   -0.3462 H   0  0  0  0  0  0  0  0  0  0  0  0
   -4.8124   -1.8599    0.6039 H   0  0  0  0  0  0  0  0  0  0  0  0
   -6.4811   -1.3323    0.7191 H   0  0  0  0  0  0  0  0  0  0  0  0
   -5.7517    0.5608    2.2371 H   0  0  0  0  0  0  0  0  0  0  0  0
   -4.1068   -0.1101    2.2142 H   0  0  0  0  0  0  0  0  0  0  0  0
   -5.4393   -1.0558    2.8923 H   0  0  0  0  0  0  0  0  0  0  0  0
  1  2  1  0
  1  3  1  0
  3  6  1  0
  4  6  1  0
  4  7  2  0
  4  8  1  0
  5  9  2  0
  7  9  1  0
  5 10  1  0
  8 10  2  0
  1 11  1  0
  1 12  1  0
 12 13  1  0
 11 14  1  0
  5 15  1  0
 15 16  1  0
 17 18  1  0
 16 19  1  0
 19 20  1  0
 18 21  1  0
 20 21  1  0
 17 22  1  0
 23 24  1  0
 23 25  1  0
 23 26  2  0
 23 27  2  0
 24 28  1  0
 28 29  1  0
 29 30  1  0
 30 31  1  0
 31 32  1  0
 32 33  1  0
 33 34  1  0
 34 35  1  0
 35 36  1  0
 36 37  1  0
 37 38  1  0
 38 39  1  0
  2 40  1  0
  2 41  1  0
  3 42  1  0
  3 43  1  0
  6 44  1  0
  6 45  1  0
  7 46  1  0
  8 47  1  0
  9 48  1  0
 10 49  1  0
 11 50  1  0
 11 51  1  0
 12 52  1  0
 12 53  1  0
 13 54  1  0
 14 55  1  0
 15 56  1  0
 15 57  1  0
 16 58  1  0
 16 59  1  0
 17 60  1  0
 17 61  1  0
 18 62  1  0
 18 63  1  0
 19 64  1  0
 19 65  1  0
 20 66  1  0
 20 67  1  0
 21 68  1  0
 21 69  1  0
 22 70  1  0
 22 71  1  0
 22 72  1  0
 25 73  1  0
 28 74  1  0
 28 75  1  0
 29 76  1  0
 29 77  1  0
 30 78  1  0
 30 79  1  0
 31 80  1  0
 31 81  1  0
 32 82  1  0
 32 83  1  0
 33 84  1  0
 33 85  1  0
 34 86  1  0
 34 87  1  0
 35 88  1  0
 35 89  1  0
 36 90  1  0
 36 91  1  0
 37 92  1  0
 37 93  1  0
 38 94  1  0
 38 95  1  0
 39 96  1  0
 39 97  1  0
 39 98  1  0
M  END
$$$$
