
     RDKit          3D

 42 44  0  0  0  0  0  0  0  0999 V2000
   -0.6950   -0.6601    0.1564 C   0  0  0  0  0  0  0  0  0  0  0  0
   -1.7211   -1.6415   -0.2266 C   0  0  0  0  0  0  0  0  0  0  0  0
   -0.9906    0.7583   -0.1169 C   0  0  0  0  0  0  0  0  0  0  0  0
   -3.4345   -0.5736    1.3249 C   0  0  0  0  0  0  0  0  0  0  0  0
   -3.0282    0.7027    1.4049 C   0  0  0  0  0  0  0  0  0  0  0  0
   -3.0307   -1.5665    0.2986 C   0  0  0  0  0  0  0  0  0  0  0  0
   -2.1101    1.3909    0.4665 C   0  0  0  0  0  0  0  0  0  0  0  0
    0.4491   -1.0784    0.7345 C   0  0  0  0  0  0  0  0  0  0  0  0
    3.8349    0.6504    0.8067 N   0  0  0  0  0  0  0  0  0  0  0  0
    1.5403   -0.1687    1.2363 C   0  0  0  0  0  0  0  0  0  0  0  0
   -0.1686    1.4787   -1.0017 C   0  0  0  0  0  0  0  0  0  0  0  0
   -1.3891   -2.6675   -1.1288 C   0  0  0  0  0  0  0  0  0  0  0  0
    2.7982   -0.3112    0.3720 C   0  0  0  0  0  0  0  0  0  0  0  0
   -2.3319    2.7558    0.2129 C   0  0  0  0  0  0  0  0  0  0  0  0
   -3.9716   -2.5417   -0.0759 C   0  0  0  0  0  0  0  0  0  0  0  0
    3.6591    1.9522    0.1373 C   0  0  0  0  0  0  0  0  0  0  0  0
    5.1777    0.1266    0.5083 C   0  0  0  0  0  0  0  0  0  0  0  0
   -0.4157    2.8274   -1.2587 C   0  0  0  0  0  0  0  0  0  0  0  0
   -2.3426   -3.6144   -1.5047 C   0  0  0  0  0  0  0  0  0  0  0  0
   -3.6320   -3.5521   -0.9783 C   0  0  0  0  0  0  0  0  0  0  0  0
   -1.4915    3.4675   -0.6457 C   0  0  0  0  0  0  0  0  0  0  0  0
   -4.1960   -0.8851    2.0310 H   0  0  0  0  0  0  0  0  0  0  0  0
   -3.4968    1.3150    2.1670 H   0  0  0  0  0  0  0  0  0  0  0  0
    0.6036   -2.1418    0.8805 H   0  0  0  0  0  0  0  0  0  0  0  0
    1.7873   -0.4654    2.2781 H   0  0  0  0  0  0  0  0  0  0  0  0
    1.2048    0.8860    1.2828 H   0  0  0  0  0  0  0  0  0  0  0  0
    0.6640    0.9950   -1.4943 H   0  0  0  0  0  0  0  0  0  0  0  0
   -0.3910   -2.7293   -1.5458 H   0  0  0  0  0  0  0  0  0  0  0  0
    2.5529   -0.1795   -0.7059 H   0  0  0  0  0  0  0  0  0  0  0  0
    3.1573   -1.3598    0.4902 H   0  0  0  0  0  0  0  0  0  0  0  0
   -3.1673    3.2702    0.6728 H   0  0  0  0  0  0  0  0  0  0  0  0
   -4.9753   -2.5198    0.3315 H   0  0  0  0  0  0  0  0  0  0  0  0
    2.6570    2.3754    0.3550 H   0  0  0  0  0  0  0  0  0  0  0  0
    3.7771    1.8604   -0.9658 H   0  0  0  0  0  0  0  0  0  0  0  0
    4.4065    2.6807    0.5189 H   0  0  0  0  0  0  0  0  0  0  0  0
    5.9559    0.8568    0.8193 H   0  0  0  0  0  0  0  0  0  0  0  0
    5.3598   -0.8053    1.0856 H   0  0  0  0  0  0  0  0  0  0  0  0
    5.2935   -0.0890   -0.5777 H   0  0  0  0  0  0  0  0  0  0  0  0
    0.2285    3.3766   -1.9330 H   0  0  0  0  0  0  0  0  0  0  0  0
   -2.0801   -4.3995   -2.2020 H   0  0  0  0  0  0  0  0  0  0  0  0
   -4.3686   -4.2918   -1.2643 H   0  0  0  0  0  0  0  0  0  0  0  0
   -1.6791    4.5156   -0.8404 H   0  0  0  0  0  0  0  0  0  0  0  0
  2  1  1  0
  3  1  1  0
  4  6  1  0
  5  7  1  0
  6  2  2  0
  7  3  2  0
  8  1  2  3
  9 13  1  0
 10  8  1  0
 11  3  1  0
 12  2  1  0
 13 10  1  0
 14  7  1  0
 15  6  1  0
 16  9  1  0
 17  9  1  0
 18 11  2  0
 19 12  2  0
 20 19  1  0
 21 18  1  0
  5  4  2  0
 21 14  2  0
 20 15  2  0
  4 22  1  0
  5 23  1  0
  8 24  1  0
 10 25  1  0
 10 26  1  0
 11 27  1  0
 12 28  1  0
 13 29  1  0
 13 30  1  0
 14 31  1  0
 15 32  1  0
 16 33  1  0
 16 34  1  0
 16 35  1  0
 17 36  1  0
 17 37  1  0
 17 38  1  0
 18 39  1  0
 19 40  1  0
 20 41  1  0
 21 42  1  0
M  END
$$$$
