
     RDKit          3D

 42 44  0  0  0  0  0  0  0  0999 V2000
   -0.7173    0.5749    0.2482 C   0  0  0  0  0  0  0  0  0  0  0  0
   -1.6109    1.7362    0.1251 C   0  0  0  0  0  0  0  0  0  0  0  0
   -1.3356   -0.7187    0.5908 C   0  0  0  0  0  0  0  0  0  0  0  0
   -2.9237    0.6274   -1.7540 C   0  0  0  0  0  0  0  0  0  0  0  0
   -2.7546   -0.6830   -1.5203 C   0  0  0  0  0  0  0  0  0  0  0  0
   -2.6826    1.7345   -0.7956 C   0  0  0  0  0  0  0  0  0  0  0  0
   -2.3162   -1.2971   -0.2444 C   0  0  0  0  0  0  0  0  0  0  0  0
    0.6037    0.7167    0.0280 C   0  0  0  0  0  0  0  0  0  0  0  0
    3.8504   -1.1812   -0.6057 N   0  0  0  0  0  0  0  0  0  0  0  0
    1.5725   -0.4387    0.0321 C   0  0  0  0  0  0  0  0  0  0  0  0
   -0.9749   -1.3621    1.7877 C   0  0  0  0  0  0  0  0  0  0  0  0
   -1.3899    2.8628    0.9366 C   0  0  0  0  0  0  0  0  0  0  0  0
    2.9500   -0.0126   -0.4922 C   0  0  0  0  0  0  0  0  0  0  0  0
   -2.8548   -2.5490    0.1008 C   0  0  0  0  0  0  0  0  0  0  0  0
   -3.4952    2.8775   -0.8967 C   0  0  0  0  0  0  0  0  0  0  0  0
    4.4778   -1.4959    0.6904 C   0  0  0  0  0  0  0  0  0  0  0  0
    4.9006   -0.9191   -1.6035 C   0  0  0  0  0  0  0  0  0  0  0  0
   -1.5370   -2.5934    2.1266 C   0  0  0  0  0  0  0  0  0  0  0  0
   -2.2197    3.9801    0.8363 C   0  0  0  0  0  0  0  0  0  0  0  0
   -3.2708    3.9876   -0.0797 C   0  0  0  0  0  0  0  0  0  0  0  0
   -2.4696   -3.1903    1.2798 C   0  0  0  0  0  0  0  0  0  0  0  0
   -3.3574    0.8971   -2.7104 H   0  0  0  0  0  0  0  0  0  0  0  0
   -3.0679   -1.3610   -2.3062 H   0  0  0  0  0  0  0  0  0  0  0  0
    0.9826    1.7003   -0.2305 H   0  0  0  0  0  0  0  0  0  0  0  0
    1.6702   -0.8200    1.0676 H   0  0  0  0  0  0  0  0  0  0  0  0
    1.1787   -1.2515   -0.6167 H   0  0  0  0  0  0  0  0  0  0  0  0
   -0.2626   -0.9055    2.4636 H   0  0  0  0  0  0  0  0  0  0  0  0
   -0.5765    2.8721    1.6521 H   0  0  0  0  0  0  0  0  0  0  0  0
    2.7913    0.4506   -1.4936 H   0  0  0  0  0  0  0  0  0  0  0  0
    3.3861    0.7724    0.1678 H   0  0  0  0  0  0  0  0  0  0  0  0
   -3.5870   -3.0263   -0.5395 H   0  0  0  0  0  0  0  0  0  0  0  0
   -4.3087    2.9100   -1.6116 H   0  0  0  0  0  0  0  0  0  0  0  0
    3.7081   -1.7523    1.4465 H   0  0  0  0  0  0  0  0  0  0  0  0
    5.1347   -2.3869    0.5912 H   0  0  0  0  0  0  0  0  0  0  0  0
    5.0858   -0.6423    1.0653 H   0  0  0  0  0  0  0  0  0  0  0  0
    4.4459   -0.7729   -2.6069 H   0  0  0  0  0  0  0  0  0  0  0  0
    5.4929   -0.0151   -1.3365 H   0  0  0  0  0  0  0  0  0  0  0  0
    5.5847   -1.7915   -1.6841 H   0  0  0  0  0  0  0  0  0  0  0  0
   -1.2488   -3.0851    3.0468 H   0  0  0  0  0  0  0  0  0  0  0  0
   -2.0451    4.8424    1.4667 H   0  0  0  0  0  0  0  0  0  0  0  0
   -3.9090    4.8579   -0.1624 H   0  0  0  0  0  0  0  0  0  0  0  0
   -2.9003   -4.1487    1.5399 H   0  0  0  0  0  0  0  0  0  0  0  0
  2  1  1  0
  3  1  1  0
  4  6  1  0
  5  7  1  0
  6  2  2  0
  7  3  2  0
  8  1  2  3
  9 13  1  0
 10  8  1  0
 11  3  1  0
 12  2  1  0
 13 10  1  0
 14  7  1  0
 15  6  1  0
 16  9  1  0
 17  9  1  0
 18 11  2  0
 19 12  2  0
 20 19  1  0
 21 18  1  0
  5  4  2  0
 21 14  2  0
 20 15  2  0
  4 22  1  0
  5 23  1  0
  8 24  1  0
 10 25  1  0
 10 26  1  0
 11 27  1  0
 12 28  1  0
 13 29  1  0
 13 30  1  0
 14 31  1  0
 15 32  1  0
 16 33  1  0
 16 34  1  0
 16 35  1  0
 17 36  1  0
 17 37  1  0
 17 38  1  0
 18 39  1  0
 19 40  1  0
 20 41  1  0
 21 42  1  0
M  END
$$$$
