
     RDKit          3D

 22 23  0  0  0  0  0  0  0  0999 V2000
    0.0000    0.0000    0.0000 Cl  0  0  0  0  0  0  0  0  0  0  0  0
   -0.3552   -0.0664    0.1440 C   0  0  0  0  0  0  0  0  0  0  0  0
   -1.6904   -0.7269    0.2555 C   0  0  0  0  0  0  0  0  0  0  0  0
    0.1891    0.3391   -1.1599 C   0  0  0  0  0  0  0  0  0  0  0  0
   -1.8929   -1.9179   -2.0449 C   0  0  0  0  0  0  0  0  0  0  0  0
   -0.9157   -1.3623   -2.7809 C   0  0  0  0  0  0  0  0  0  0  0  0
   -2.3364   -1.5208   -0.7003 C   0  0  0  0  0  0  0  0  0  0  0  0
   -0.0500   -0.2193   -2.4202 C   0  0  0  0  0  0  0  0  0  0  0  0
    0.2323    0.1048    1.2284 C   0  0  0  0  0  0  0  0  0  0  0  0
    3.4364    1.5086    2.4560 N   0  0  0  0  0  0  0  0  0  0  0  0
    1.3209    0.5555    1.9618 C   0  0  0  0  0  0  0  0  0  0  0  0
    1.0252    1.4142   -0.9821 C   0  0  0  0  0  0  0  0  0  0  0  0
   -2.2954   -0.4796    1.4708 C   0  0  0  0  0  0  0  0  0  0  0  0
    2.5161    1.1672    1.3623 C   0  0  0  0  0  0  0  0  0  0  0  0
    0.5830    0.3372   -3.5222 C   0  0  0  0  0  0  0  0  0  0  0  0
   -3.5823   -2.0667   -0.4448 C   0  0  0  0  0  0  0  0  0  0  0  0
    4.6285    2.1153    1.8991 C   0  0  0  0  0  0  0  0  0  0  0  0
    3.8340    0.2739    3.1440 C   0  0  0  0  0  0  0  0  0  0  0  0
    1.6459    1.9613   -2.0561 C   0  0  0  0  0  0  0  0  0  0  0  0
   -3.5376   -1.0207    1.7324 C   0  0  0  0  0  0  0  0  0  0  0  0
   -4.1715   -1.8100    0.7726 C   0  0  0  0  0  0  0  0  0  0  0  0
    1.4157    1.4133   -3.3178 C   0  0  0  0  0  0  0  0  0  0  0  0
  3  2  1  0
  4  2  1  0
  5  7  1  0
  6  8  1  0
  7  3  2  0
  8  4  2  0
  9  2  2  0
 10 14  1  0
 11  9  1  0
 12  4  1  0
 13  3  1  0
 14 11  1  0
 15  8  1  0
 16  7  1  0
 17 10  1  0
 18 10  1  0
 19 12  2  0
 20 13  2  0
 21 20  1  0
 22 19  1  0
  6  5  2  0
 22 15  2  0
 21 16  2  0
M  END
