
     RDKit          3D

 42 44  0  0  0  0  0  0  0  0999 V2000
    0.7592   -0.5603   -0.2980 C   0  0  0  0  0  0  0  0  0  0  0  0
    1.7756   -1.5795    0.0028 C   0  0  0  0  0  0  0  0  0  0  0  0
    1.2346    0.7304   -0.8282 C   0  0  0  0  0  0  0  0  0  0  0  0
    2.9122   -0.0594    1.7003 C   0  0  0  0  0  0  0  0  0  0  0  0
    2.6009    1.1733    1.2715 C   0  0  0  0  0  0  0  0  0  0  0  0
    2.8194   -1.3172    0.9182 C   0  0  0  0  0  0  0  0  0  0  0  0
    2.1244    1.5359   -0.0845 C   0  0  0  0  0  0  0  0  0  0  0  0
   -0.5417   -0.8184   -0.0642 C   0  0  0  0  0  0  0  0  0  0  0  0
   -4.0547    0.6656    0.0266 N   0  0  0  0  0  0  0  0  0  0  0  0
   -1.6340    0.2055   -0.2438 C   0  0  0  0  0  0  0  0  0  0  0  0
    0.8301    1.1425   -2.1101 C   0  0  0  0  0  0  0  0  0  0  0  0
    1.7016   -2.8322   -0.6309 C   0  0  0  0  0  0  0  0  0  0  0  0
   -2.9739   -0.3076    0.2997 C   0  0  0  0  0  0  0  0  0  0  0  0
    2.5251    2.7762   -0.6113 C   0  0  0  0  0  0  0  0  0  0  0  0
    3.7537   -2.3310    1.1942 C   0  0  0  0  0  0  0  0  0  0  0  0
   -4.0933    1.7188    1.0570 C   0  0  0  0  0  0  0  0  0  0  0  0
   -5.3571   -0.0190   -0.0183 C   0  0  0  0  0  0  0  0  0  0  0  0
    1.2564    2.3662   -2.6275 C   0  0  0  0  0  0  0  0  0  0  0  0
    2.6501   -3.8190   -0.3595 C   0  0  0  0  0  0  0  0  0  0  0  0
    3.6746   -3.5688    0.5524 C   0  0  0  0  0  0  0  0  0  0  0  0
    2.0961    3.1862   -1.8753 C   0  0  0  0  0  0  0  0  0  0  0  0
    3.3522   -0.1319    2.6886 H   0  0  0  0  0  0  0  0  0  0  0  0
    2.8177    1.9922    1.9480 H   0  0  0  0  0  0  0  0  0  0  0  0
   -0.8115   -1.7886    0.3402 H   0  0  0  0  0  0  0  0  0  0  0  0
   -1.3427    1.1338    0.2904 H   0  0  0  0  0  0  0  0  0  0  0  0
   -1.7541    0.4343   -1.3233 H   0  0  0  0  0  0  0  0  0  0  0  0
    0.1891    0.5114   -2.7129 H   0  0  0  0  0  0  0  0  0  0  0  0
    0.9104   -3.0416   -1.3409 H   0  0  0  0  0  0  0  0  0  0  0  0
   -3.1870   -1.2752   -0.2111 H   0  0  0  0  0  0  0  0  0  0  0  0
   -2.8885   -0.5232    1.3898 H   0  0  0  0  0  0  0  0  0  0  0  0
    3.1839    3.4249   -0.0464 H   0  0  0  0  0  0  0  0  0  0  0  0
    4.5495   -2.1628    1.9099 H   0  0  0  0  0  0  0  0  0  0  0  0
   -3.1389    2.2833    1.0770 H   0  0  0  0  0  0  0  0  0  0  0  0
   -4.8930    2.4541    0.8223 H   0  0  0  0  0  0  0  0  0  0  0  0
   -4.2840    1.2918    2.0671 H   0  0  0  0  0  0  0  0  0  0  0  0
   -5.3750   -0.7509   -0.8543 H   0  0  0  0  0  0  0  0  0  0  0  0
   -6.1722    0.7116   -0.2124 H   0  0  0  0  0  0  0  0  0  0  0  0
   -5.5650   -0.5515    0.9369 H   0  0  0  0  0  0  0  0  0  0  0  0
    0.9349    2.6790   -3.6125 H   0  0  0  0  0  0  0  0  0  0  0  0
    2.5882   -4.7799   -0.8537 H   0  0  0  0  0  0  0  0  0  0  0  0
    4.4052   -4.3377    0.7684 H   0  0  0  0  0  0  0  0  0  0  0  0
    2.4210    4.1384   -2.2744 H   0  0  0  0  0  0  0  0  0  0  0  0
  2  1  1  0
  3  1  1  0
  4  6  1  0
  5  7  1  0
  6  2  2  0
  7  3  2  0
  8  1  2  3
  9 13  1  0
 10  8  1  0
 11  3  1  0
 12  2  1  0
 13 10  1  0
 14  7  1  0
 15  6  1  0
 16  9  1  0
 17  9  1  0
 18 11  2  0
 19 12  2  0
 20 19  1  0
 21 18  1  0
  5  4  2  0
 21 14  2  0
 20 15  2  0
  4 22  1  0
  5 23  1  0
  8 24  1  0
 10 25  1  0
 10 26  1  0
 11 27  1  0
 12 28  1  0
 13 29  1  0
 13 30  1  0
 14 31  1  0
 15 32  1  0
 16 33  1  0
 16 34  1  0
 16 35  1  0
 17 36  1  0
 17 37  1  0
 17 38  1  0
 18 39  1  0
 19 40  1  0
 20 41  1  0
 21 42  1  0
M  END
$$$$
