
     RDKit          3D

 37 40  0  0  0  0  0  0  0  0999 V2000
    0.1579    0.6517   -0.1133 C   0  0  0  0  0  0  0  0  0  0  0  0
    0.2612   -0.7193   -0.0024 C   0  0  0  0  0  0  0  0  0  0  0  0
    1.4564   -1.2760   -0.2947 N   0  0  0  0  0  0  0  0  0  0  0  0
   -1.0413    1.2642    0.1745 C   0  0  0  0  0  0  0  0  0  0  0  0
   -0.8110   -1.4922    0.3908 C   0  0  0  0  0  0  0  0  0  0  0  0
   -2.1537    0.5207    0.5765 C   0  0  0  0  0  0  0  0  0  0  0  0
   -2.0101   -0.8684    0.6775 C   0  0  0  0  0  0  0  0  0  0  0  0
   -1.2752    2.9992    0.0644 Cl  0  0  0  0  0  0  0  0  0  0  0  0
   -0.6934   -2.8834    0.4996 O   0  0  0  0  0  0  0  0  0  0  0  0
    1.2021    1.4634   -0.5023 C   0  0  0  0  0  0  0  0  0  0  0  0
    2.4966   -0.5122   -0.6777 C   0  0  0  0  0  0  0  0  0  0  0  0
    2.4106    0.8521   -0.7930 C   0  0  0  0  0  0  0  0  0  0  0  0
   -0.2496   -0.7324    0.0380 C   0  0  0  0  0  0  0  0  0  0  0  0
    1.1179   -0.9602    0.0556 C   0  0  0  0  0  0  0  0  0  0  0  0
   -0.7320    0.5682   -0.0332 C   0  0  0  0  0  0  0  0  0  0  0  0
    2.0019    0.0899    0.0031 C   0  0  0  0  0  0  0  0  0  0  0  0
    0.1667    1.6256   -0.0860 C   0  0  0  0  0  0  0  0  0  0  0  0
    1.5342    1.4062   -0.0689 C   0  0  0  0  0  0  0  0  0  0  0  0
   -1.1495   -1.7306    0.0877 N   0  0  0  0  0  0  0  0  0  0  0  0
    1.5720   -2.2542    0.1263 O   0  0  0  0  0  0  0  0  0  0  0  0
    3.7266   -0.2312    0.0271 Cl  0  0  0  0  0  0  0  0  0  0  0  0
   -0.4238    3.2528   -0.1750 Cl  0  0  0  0  0  0  0  0  0  0  0  0
   -2.0910    0.7899   -0.0504 C   0  0  0  0  0  0  0  0  0  0  0  0
   -2.4717   -1.5533    0.0730 C   0  0  0  0  0  0  0  0  0  0  0  0
   -3.0018   -0.2708    0.0026 C   0  0  0  0  0  0  0  0  0  0  0  0
   -0.9599    0.8136    0.1962 C   0  0  0  0  0  0  0  0  0  0  0  0
    0.3529    0.4017    0.1492 C   0  0  0  0  0  0  0  0  0  0  0  0
   -1.9907   -0.0429   -0.1395 C   0  0  0  0  0  0  0  0  0  0  0  0
    1.3783    1.2013    0.4665 N   0  0  0  0  0  0  0  0  0  0  0  0
    0.6187   -0.8934   -0.2430 C   0  0  0  0  0  0  0  0  0  0  0  0
   -1.7360   -1.3552   -0.5378 C   0  0  0  0  0  0  0  0  0  0  0  0
   -0.4042   -1.7684   -0.5840 C   0  0  0  0  0  0  0  0  0  0  0  0
   -1.1922    2.1304    0.5973 O   0  0  0  0  0  0  0  0  0  0  0  0
   -3.6207    0.5936   -0.0417 Cl  0  0  0  0  0  0  0  0  0  0  0  0
    2.6559    0.7714    0.4116 C   0  0  0  0  0  0  0  0  0  0  0  0
    1.9223   -1.3411   -0.3018 C   0  0  0  0  0  0  0  0  0  0  0  0
    2.9756   -0.5109    0.0270 C   0  0  0  0  0  0  0  0  0  0  0  0
  2  1  1  0
  3  2  2  0
  4  1  1  0
  5  2  1  0
  6  4  2  0
  7  6  1  0
  8  4  1  0
  9  5  1  0
 10  1  2  0
 11 12  2  0
 12 10  1  0
 11  3  1  0
  7  5  2  0
 14 13  2  0
 15 13  1  0
 16 14  1  0
 17 15  2  0
 18 17  1  0
 19 13  1  0
 20 14  1  0
 21 16  1  0
 22 17  1  0
 23 15  1  0
 24 19  2  0
 25 23  2  0
 16 18  2  0
 24 25  1  0
 27 26  2  0
 28 26  1  0
 29 27  1  0
 30 27  1  0
 31 28  2  0
 32 31  1  0
 33 26  1  0
 34 28  1  0
 35 29  2  0
 36 30  1  0
 37 36  2  0
 32 30  2  0
 35 37  1  0
M  END
