
     RDKit          3D

 54 57  0  0  0  0  0  0  0  0999 V2000
    0.3533    0.6822    0.0236 C   0  0  0  0  0  0  0  0  0  0  0  0
   -0.1138   -0.6463   -0.0376 C   0  0  0  0  0  0  0  0  0  0  0  0
    0.7006   -1.7161   -0.1688 N   0  0  0  0  0  0  0  0  0  0  0  0
   -0.5952    1.7296    0.1625 C   0  0  0  0  0  0  0  0  0  0  0  0
   -1.4857   -0.8729    0.0410 C   0  0  0  0  0  0  0  0  0  0  0  0
   -1.9660    1.4622    0.2382 C   0  0  0  0  0  0  0  0  0  0  0  0
   -2.4161    0.1499    0.1770 C   0  0  0  0  0  0  0  0  0  0  0  0
   -0.1113    3.3911    0.2459 Cl  0  0  0  0  0  0  0  0  0  0  0  0
   -1.9554   -2.1637   -0.0173 O   0  0  0  0  0  0  0  0  0  0  0  0
    1.7522    0.8599   -0.0603 C   0  0  0  0  0  0  0  0  0  0  0  0
    2.0299   -1.4916   -0.2447 C   0  0  0  0  0  0  0  0  0  0  0  0
    2.5988   -0.2354   -0.1956 C   0  0  0  0  0  0  0  0  0  0  0  0
    0.0023   -0.6323    0.1430 C   0  0  0  0  0  0  0  0  0  0  0  0
    1.3232   -1.0686    0.0783 C   0  0  0  0  0  0  0  0  0  0  0  0
   -0.2854    0.7214   -0.1281 C   0  0  0  0  0  0  0  0  0  0  0  0
    2.3703   -0.2073   -0.2465 C   0  0  0  0  0  0  0  0  0  0  0  0
    0.7857    1.5905   -0.4577 C   0  0  0  0  0  0  0  0  0  0  0  0
    2.1017    1.1285   -0.5159 C   0  0  0  0  0  0  0  0  0  0  0  0
   -0.9452   -1.5389    0.4657 N   0  0  0  0  0  0  0  0  0  0  0  0
    1.5757   -2.3970    0.3480 O   0  0  0  0  0  0  0  0  0  0  0  0
    4.0027   -0.7567   -0.3241 Cl  0  0  0  0  0  0  0  0  0  0  0  0
    0.5241    3.2673   -0.8052 Cl  0  0  0  0  0  0  0  0  0  0  0  0
   -1.6424    1.1050   -0.0470 C   0  0  0  0  0  0  0  0  0  0  0  0
   -2.2281   -1.1220    0.5301 C   0  0  0  0  0  0  0  0  0  0  0  0
   -2.6231    0.1764    0.2848 C   0  0  0  0  0  0  0  0  0  0  0  0
   -1.2942    1.0302   -0.3536 C   0  0  0  0  0  0  0  0  0  0  0  0
    0.0230    0.6194   -0.1622 C   0  0  0  0  0  0  0  0  0  0  0  0
   -2.3678    0.1534   -0.1896 C   0  0  0  0  0  0  0  0  0  0  0  0
    1.0206    1.5133   -0.3356 N   0  0  0  0  0  0  0  0  0  0  0  0
    0.2590   -0.7213    0.2069 C   0  0  0  0  0  0  0  0  0  0  0  0
   -2.1287   -1.1699    0.1751 C   0  0  0  0  0  0  0  0  0  0  0  0
   -0.8188   -1.6086    0.3735 C   0  0  0  0  0  0  0  0  0  0  0  0
   -1.5126    2.3431   -0.7143 O   0  0  0  0  0  0  0  0  0  0  0  0
   -3.9975    0.6648   -0.4273 Cl  0  0  0  0  0  0  0  0  0  0  0  0
    2.2881    1.0848   -0.1426 C   0  0  0  0  0  0  0  0  0  0  0  0
    1.5874   -1.1233    0.3967 C   0  0  0  0  0  0  0  0  0  0  0  0
    2.6187   -0.2079    0.2197 C   0  0  0  0  0  0  0  0  0  0  0  0
   -2.6838    2.2717    0.3445 H   0  0  0  0  0  0  0  0  0  0  0  0
   -3.4760   -0.0795    0.2339 H   0  0  0  0  0  0  0  0  0  0  0  0
   -1.1429   -2.7066   -0.1112 H   0  0  0  0  0  0  0  0  0  0  0  0
    2.1919    1.8538   -0.0208 H   0  0  0  0  0  0  0  0  0  0  0  0
    2.6459   -2.3806   -0.3496 H   0  0  0  0  0  0  0  0  0  0  0  0
    3.6736   -0.1080   -0.2608 H   0  0  0  0  0  0  0  0  0  0  0  0
    2.9122    1.8071   -0.7700 H   0  0  0  0  0  0  0  0  0  0  0  0
    0.6933   -2.7798    0.5440 H   0  0  0  0  0  0  0  0  0  0  0  0
   -1.9465    2.1312   -0.2419 H   0  0  0  0  0  0  0  0  0  0  0  0
   -2.9533   -1.8874    0.7934 H   0  0  0  0  0  0  0  0  0  0  0  0
   -3.6672    0.4625    0.3493 H   0  0  0  0  0  0  0  0  0  0  0  0
   -2.9563   -1.8626    0.3061 H   0  0  0  0  0  0  0  0  0  0  0  0
   -0.6443   -2.6441    0.6581 H   0  0  0  0  0  0  0  0  0  0  0  0
   -0.6140    2.7340   -0.7610 H   0  0  0  0  0  0  0  0  0  0  0  0
    3.0588    1.8363   -0.2927 H   0  0  0  0  0  0  0  0  0  0  0  0
    1.8242   -2.1454    0.6817 H   0  0  0  0  0  0  0  0  0  0  0  0
    3.6544   -0.4964    0.3612 H   0  0  0  0  0  0  0  0  0  0  0  0
  2  1  1  0
  3  2  2  0
  4  1  1  0
  5  2  1  0
  6  4  2  0
  7  6  1  0
  8  4  1  0
  9  5  1  0
 10  1  2  0
 11 12  2  0
 12 10  1  0
 11  3  1  0
  7  5  2  0
 14 13  2  0
 15 13  1  0
 16 14  1  0
 17 15  2  0
 18 17  1  0
 19 13  1  0
 20 14  1  0
 21 16  1  0
 22 17  1  0
 23 15  1  0
 24 19  2  0
 25 23  2  0
 16 18  2  0
 24 25  1  0
 27 26  2  0
 28 26  1  0
 29 27  1  0
 30 27  1  0
 31 28  2  0
 32 31  1  0
 33 26  1  0
 34 28  1  0
 35 29  2  0
 36 30  1  0
 37 36  2  0
 32 30  2  0
 35 37  1  0
  6 38  1  0
  7 39  1  0
  9 40  1  0
 10 41  1  0
 11 42  1  0
 12 43  1  0
 18 44  1  0
 20 45  1  0
 23 46  1  0
 24 47  1  0
 25 48  1  0
 31 49  1  0
 32 50  1  0
 33 51  1  0
 35 52  1  0
 36 53  1  0
 37 54  1  0
M  END
$$$$
