
     RDKit          3D

 54 57  0  0  0  0  0  0  0  0999 V2000
    0.4079    0.6572    0.0045 C   0  0  0  0  0  0  0  0  0  0  0  0
    0.0211   -0.7028    0.0153 C   0  0  0  0  0  0  0  0  0  0  0  0
    0.9347   -1.6995    0.0758 N   0  0  0  0  0  0  0  0  0  0  0  0
   -0.5950    1.6580   -0.0600 C   0  0  0  0  0  0  0  0  0  0  0  0
   -1.3508   -0.9981   -0.0389 C   0  0  0  0  0  0  0  0  0  0  0  0
   -1.9499    1.3260   -0.1127 C   0  0  0  0  0  0  0  0  0  0  0  0
   -2.3324   -0.0077   -0.1022 C   0  0  0  0  0  0  0  0  0  0  0  0
   -0.2067    3.3479   -0.0775 Cl  0  0  0  0  0  0  0  0  0  0  0  0
   -1.7484   -2.3161   -0.0294 O   0  0  0  0  0  0  0  0  0  0  0  0
    1.7938    0.9318    0.0597 C   0  0  0  0  0  0  0  0  0  0  0  0
    2.2455   -1.3897    0.1270 C   0  0  0  0  0  0  0  0  0  0  0  0
    2.7226   -0.0990    0.1216 C   0  0  0  0  0  0  0  0  0  0  0  0
    0.0785    0.6435    0.0028 C   0  0  0  0  0  0  0  0  0  0  0  0
    1.4391    0.8972   -0.1517 C   0  0  0  0  0  0  0  0  0  0  0  0
   -0.3695   -0.6934    0.0304 C   0  0  0  0  0  0  0  0  0  0  0  0
    2.3720   -0.1308   -0.2800 C   0  0  0  0  0  0  0  0  0  0  0  0
    0.5863   -1.7329   -0.1008 C   0  0  0  0  0  0  0  0  0  0  0  0
    1.9451   -1.4522   -0.2546 C   0  0  0  0  0  0  0  0  0  0  0  0
   -0.7504    1.7033    0.1194 N   0  0  0  0  0  0  0  0  0  0  0  0
    1.8492    2.2134   -0.1753 O   0  0  0  0  0  0  0  0  0  0  0  0
    4.0546    0.1932   -0.4708 Cl  0  0  0  0  0  0  0  0  0  0  0  0
    0.1251   -3.4024   -0.0778 Cl  0  0  0  0  0  0  0  0  0  0  0  0
   -1.7595   -0.8883    0.1894 C   0  0  0  0  0  0  0  0  0  0  0  0
   -2.0710    1.4638    0.2695 C   0  0  0  0  0  0  0  0  0  0  0  0
   -2.6186    0.1987    0.3101 C   0  0  0  0  0  0  0  0  0  0  0  0
   -1.6238   -0.4596   -0.1153 C   0  0  0  0  0  0  0  0  0  0  0  0
   -0.2417   -0.5934   -0.0048 C   0  0  0  0  0  0  0  0  0  0  0  0
   -2.2364    0.7923   -0.1925 C   0  0  0  0  0  0  0  0  0  0  0  0
    0.2939   -1.8313    0.0661 N   0  0  0  0  0  0  0  0  0  0  0  0
    0.5435    0.5779    0.0286 C   0  0  0  0  0  0  0  0  0  0  0  0
   -1.4557    1.9458   -0.1591 C   0  0  0  0  0  0  0  0  0  0  0  0
   -0.0685    1.8413   -0.0489 C   0  0  0  0  0  0  0  0  0  0  0  0
   -2.3811   -1.6116   -0.1469 O   0  0  0  0  0  0  0  0  0  0  0  0
   -3.9478    0.9547   -0.3293 Cl  0  0  0  0  0  0  0  0  0  0  0  0
    1.6380   -1.9286    0.1729 C   0  0  0  0  0  0  0  0  0  0  0  0
    1.9322    0.4313    0.1400 C   0  0  0  0  0  0  0  0  0  0  0  0
    2.4896   -0.8402    0.2133 C   0  0  0  0  0  0  0  0  0  0  0  0
   -2.7081    2.1039   -0.1619 H   0  0  0  0  0  0  0  0  0  0  0  0
   -3.3874   -0.2604   -0.1434 H   0  0  0  0  0  0  0  0  0  0  0  0
   -2.7149   -2.3693   -0.0710 H   0  0  0  0  0  0  0  0  0  0  0  0
    2.1621    1.9549    0.0550 H   0  0  0  0  0  0  0  0  0  0  0  0
    2.9192   -2.2402    0.1740 H   0  0  0  0  0  0  0  0  0  0  0  0
    3.7865    0.1031    0.1642 H   0  0  0  0  0  0  0  0  0  0  0  0
    2.6658   -2.2600   -0.3539 H   0  0  0  0  0  0  0  0  0  0  0  0
    1.0217    2.7305   -0.0688 H   0  0  0  0  0  0  0  0  0  0  0  0
   -2.1843   -1.8893    0.2205 H   0  0  0  0  0  0  0  0  0  0  0  0
   -2.6969    2.3477    0.3591 H   0  0  0  0  0  0  0  0  0  0  0  0
   -3.6870    0.0579    0.4325 H   0  0  0  0  0  0  0  0  0  0  0  0
   -1.9208    2.9267   -0.2184 H   0  0  0  0  0  0  0  0  0  0  0  0
    0.5308    2.7491   -0.0237 H   0  0  0  0  0  0  0  0  0  0  0  0
   -1.7229   -2.3359   -0.0787 H   0  0  0  0  0  0  0  0  0  0  0  0
    2.0259   -2.9424    0.2270 H   0  0  0  0  0  0  0  0  0  0  0  0
    2.5829    1.3018    0.1700 H   0  0  0  0  0  0  0  0  0  0  0  0
    3.5617   -0.9778    0.2999 H   0  0  0  0  0  0  0  0  0  0  0  0
  2  1  1  0
  3  2  2  0
  4  1  1  0
  5  2  1  0
  6  4  2  0
  7  6  1  0
  8  4  1  0
  9  5  1  0
 10  1  2  0
 11 12  2  0
 12 10  1  0
 11  3  1  0
  7  5  2  0
 14 13  2  0
 15 13  1  0
 16 14  1  0
 17 15  2  0
 18 17  1  0
 19 13  1  0
 20 14  1  0
 21 16  1  0
 22 17  1  0
 23 15  1  0
 24 19  2  0
 25 23  2  0
 16 18  2  0
 24 25  1  0
 27 26  2  0
 28 26  1  0
 29 27  1  0
 30 27  1  0
 31 28  2  0
 32 31  1  0
 33 26  1  0
 34 28  1  0
 35 29  2  0
 36 30  1  0
 37 36  2  0
 32 30  2  0
 35 37  1  0
  6 38  1  0
  7 39  1  0
  9 40  1  0
 10 41  1  0
 11 42  1  0
 12 43  1  0
 18 44  1  0
 20 45  1  0
 23 46  1  0
 24 47  1  0
 25 48  1  0
 31 49  1  0
 32 50  1  0
 33 51  1  0
 35 52  1  0
 36 53  1  0
 37 54  1  0
M  END
$$$$
