
     RDKit          3D

 54 57  0  0  0  0  0  0  0  0999 V2000
   -0.4480   -0.6216    0.0609 C   0  0  0  0  0  0  0  0  0  0  0  0
    0.2087    0.6230   -0.0213 C   0  0  0  0  0  0  0  0  0  0  0  0
   -0.4251    1.8088    0.1091 N   0  0  0  0  0  0  0  0  0  0  0  0
    0.3200   -1.8060   -0.0917 C   0  0  0  0  0  0  0  0  0  0  0  0
    1.5827    0.6357   -0.2486 C   0  0  0  0  0  0  0  0  0  0  0  0
    1.6991   -1.7525   -0.3190 C   0  0  0  0  0  0  0  0  0  0  0  0
    2.3368   -0.5215   -0.3983 C   0  0  0  0  0  0  0  0  0  0  0  0
   -0.4035   -3.3778   -0.0054 Cl  0  0  0  0  0  0  0  0  0  0  0  0
    2.2364    1.8425   -0.3311 O   0  0  0  0  0  0  0  0  0  0  0  0
   -1.8410   -0.5818    0.2926 C   0  0  0  0  0  0  0  0  0  0  0  0
   -1.7571    1.7915    0.3294 C   0  0  0  0  0  0  0  0  0  0  0  0
   -2.5023    0.6344    0.4281 C   0  0  0  0  0  0  0  0  0  0  0  0
    0.0927   -0.6357   -0.0873 C   0  0  0  0  0  0  0  0  0  0  0  0
    1.4656   -0.8653   -0.0446 C   0  0  0  0  0  0  0  0  0  0  0  0
   -0.3863    0.6804    0.0775 C   0  0  0  0  0  0  0  0  0  0  0  0
    2.3811    0.1667    0.1563 C   0  0  0  0  0  0  0  0  0  0  0  0
    0.5519    1.7242    0.2813 C   0  0  0  0  0  0  0  0  0  0  0  0
    1.9235    1.4678    0.3201 C   0  0  0  0  0  0  0  0  0  0  0  0
   -0.7175   -1.6975   -0.2866 N   0  0  0  0  0  0  0  0  0  0  0  0
    1.9062   -2.1616   -0.2087 O   0  0  0  0  0  0  0  0  0  0  0  0
    4.0792   -0.1275    0.2076 Cl  0  0  0  0  0  0  0  0  0  0  0  0
    0.0524    3.3693    0.4929 Cl  0  0  0  0  0  0  0  0  0  0  0  0
   -1.7875    0.8515    0.0247 C   0  0  0  0  0  0  0  0  0  0  0  0
   -2.0498   -1.4813   -0.3291 C   0  0  0  0  0  0  0  0  0  0  0  0
   -2.6275   -0.2378   -0.1803 C   0  0  0  0  0  0  0  0  0  0  0  0
    1.5484    0.6669   -0.4537 C   0  0  0  0  0  0  0  0  0  0  0  0
    0.1603    0.6195   -0.3473 C   0  0  0  0  0  0  0  0  0  0  0  0
    2.3230   -0.4941   -0.4756 C   0  0  0  0  0  0  0  0  0  0  0  0
   -0.5362    1.7767   -0.3311 N   0  0  0  0  0  0  0  0  0  0  0  0
   -0.4616   -0.6435   -0.2607 C   0  0  0  0  0  0  0  0  0  0  0  0
    1.7033   -1.7389   -0.3897 C   0  0  0  0  0  0  0  0  0  0  0  0
    0.3140   -1.8160   -0.2823 C   0  0  0  0  0  0  0  0  0  0  0  0
    2.1452    1.9072   -0.5377 O   0  0  0  0  0  0  0  0  0  0  0  0
    4.0414   -0.4323   -0.6073 Cl  0  0  0  0  0  0  0  0  0  0  0  0
   -1.8817    1.6982   -0.2270 C   0  0  0  0  0  0  0  0  0  0  0  0
   -1.8579   -0.6790   -0.1541 C   0  0  0  0  0  0  0  0  0  0  0  0
   -2.5804    0.5086   -0.1369 C   0  0  0  0  0  0  0  0  0  0  0  0
    2.2778   -2.6655   -0.4344 H   0  0  0  0  0  0  0  0  0  0  0  0
    3.4066   -0.4577   -0.5742 H   0  0  0  0  0  0  0  0  0  0  0  0
    1.5249    2.5059   -0.1989 H   0  0  0  0  0  0  0  0  0  0  0  0
   -2.4205   -1.4989    0.3690 H   0  0  0  0  0  0  0  0  0  0  0  0
   -2.2244    2.7675    0.4277 H   0  0  0  0  0  0  0  0  0  0  0  0
   -3.5712    0.6740    0.6061 H   0  0  0  0  0  0  0  0  0  0  0  0
    2.6304    2.2786    0.4772 H   0  0  0  0  0  0  0  0  0  0  0  0
    1.0856   -2.6863   -0.3303 H   0  0  0  0  0  0  0  0  0  0  0  0
   -2.2360    1.8355    0.1429 H   0  0  0  0  0  0  0  0  0  0  0  0
   -2.6598   -2.3659   -0.4916 H   0  0  0  0  0  0  0  0  0  0  0  0
   -3.7043   -0.1152   -0.2222 H   0  0  0  0  0  0  0  0  0  0  0  0
    2.2954   -2.6505   -0.4057 H   0  0  0  0  0  0  0  0  0  0  0  0
   -0.1588   -2.7936   -0.2159 H   0  0  0  0  0  0  0  0  0  0  0  0
    1.3958    2.5394   -0.5010 H   0  0  0  0  0  0  0  0  0  0  0  0
   -2.4018    2.6525   -0.2178 H   0  0  0  0  0  0  0  0  0  0  0  0
   -2.3867   -1.6264   -0.0844 H   0  0  0  0  0  0  0  0  0  0  0  0
   -3.6617    0.5055   -0.0551 H   0  0  0  0  0  0  0  0  0  0  0  0
  2  1  1  0
  3  2  2  0
  4  1  1  0
  5  2  1  0
  6  4  2  0
  7  6  1  0
  8  4  1  0
  9  5  1  0
 10  1  2  0
 11 12  2  0
 12 10  1  0
 11  3  1  0
  7  5  2  0
 14 13  2  0
 15 13  1  0
 16 14  1  0
 17 15  2  0
 18 17  1  0
 19 13  1  0
 20 14  1  0
 21 16  1  0
 22 17  1  0
 23 15  1  0
 24 19  2  0
 25 23  2  0
 16 18  2  0
 24 25  1  0
 27 26  2  0
 28 26  1  0
 29 27  1  0
 30 27  1  0
 31 28  2  0
 32 31  1  0
 33 26  1  0
 34 28  1  0
 35 29  2  0
 36 30  1  0
 37 36  2  0
 32 30  2  0
 35 37  1  0
  6 38  1  0
  7 39  1  0
  9 40  1  0
 10 41  1  0
 11 42  1  0
 12 43  1  0
 18 44  1  0
 20 45  1  0
 23 46  1  0
 24 47  1  0
 25 48  1  0
 31 49  1  0
 32 50  1  0
 33 51  1  0
 35 52  1  0
 36 53  1  0
 37 54  1  0
M  END
$$$$
