
     RDKit          3D

 54 57  0  0  0  0  0  0  0  0999 V2000
    0.4807    0.5987    0.0358 C   0  0  0  0  0  0  0  0  0  0  0  0
   -0.2408   -0.6116   -0.0026 C   0  0  0  0  0  0  0  0  0  0  0  0
    0.3349   -1.8258    0.1356 N   0  0  0  0  0  0  0  0  0  0  0  0
   -0.2298    1.8179   -0.1209 C   0  0  0  0  0  0  0  0  0  0  0  0
   -1.6194   -0.5579   -0.1926 C   0  0  0  0  0  0  0  0  0  0  0  0
   -1.6156    1.8313   -0.3099 C   0  0  0  0  0  0  0  0  0  0  0  0
   -2.3173    0.6336   -0.3463 C   0  0  0  0  0  0  0  0  0  0  0  0
    0.5753    3.3517   -0.0871 Cl  0  0  0  0  0  0  0  0  0  0  0  0
   -2.3360   -1.7306   -0.2322 O   0  0  0  0  0  0  0  0  0  0  0  0
    1.8758    0.4915    0.2307 C   0  0  0  0  0  0  0  0  0  0  0  0
    1.6717   -1.8730    0.3196 C   0  0  0  0  0  0  0  0  0  0  0  0
    2.4776   -0.7543    0.3740 C   0  0  0  0  0  0  0  0  0  0  0  0
   -0.0575   -0.6926   -0.0700 C   0  0  0  0  0  0  0  0  0  0  0  0
    1.3089   -0.9996   -0.1214 C   0  0  0  0  0  0  0  0  0  0  0  0
   -0.4335    0.6637    0.0742 C   0  0  0  0  0  0  0  0  0  0  0  0
    2.2903   -0.0077   -0.0344 C   0  0  0  0  0  0  0  0  0  0  0  0
    0.5771    1.6557    0.1608 C   0  0  0  0  0  0  0  0  0  0  0  0
    1.9292    1.3222    0.1069 C   0  0  0  0  0  0  0  0  0  0  0  0
   -0.9804   -1.6772   -0.1571 N   0  0  0  0  0  0  0  0  0  0  0  0
    1.6877   -2.3195   -0.2619 O   0  0  0  0  0  0  0  0  0  0  0  0
    3.9649   -0.4204   -0.1011 Cl  0  0  0  0  0  0  0  0  0  0  0  0
    0.1980    3.3382    0.3384 Cl  0  0  0  0  0  0  0  0  0  0  0  0
   -1.8182    0.9447    0.1233 C   0  0  0  0  0  0  0  0  0  0  0  0
   -2.2902   -1.3623   -0.1057 C   0  0  0  0  0  0  0  0  0  0  0  0
   -2.7565   -0.0753    0.0328 C   0  0  0  0  0  0  0  0  0  0  0  0
   -1.4200    0.9157    0.0797 C   0  0  0  0  0  0  0  0  0  0  0  0
   -0.0559    0.6375    0.0315 C   0  0  0  0  0  0  0  0  0  0  0  0
   -2.3776   -0.0996    0.0564 C   0  0  0  0  0  0  0  0  0  0  0  0
    0.8238    1.6621    0.0572 N   0  0  0  0  0  0  0  0  0  0  0  0
    0.3497   -0.7114   -0.0425 C   0  0  0  0  0  0  0  0  0  0  0  0
   -1.9710   -1.4302   -0.0168 C   0  0  0  0  0  0  0  0  0  0  0  0
   -0.6107   -1.7379   -0.0662 C   0  0  0  0  0  0  0  0  0  0  0  0
   -1.8047    2.2379    0.1519 O   0  0  0  0  0  0  0  0  0  0  0  0
   -4.0657    0.2479    0.1162 Cl  0  0  0  0  0  0  0  0  0  0  0  0
    2.1406    1.3603    0.0091 C   0  0  0  0  0  0  0  0  0  0  0  0
    1.7239   -0.9793   -0.0905 C   0  0  0  0  0  0  0  0  0  0  0  0
    2.6344    0.0710   -0.0644 C   0  0  0  0  0  0  0  0  0  0  0  0
   -2.1499    2.7706   -0.4289 H   0  0  0  0  0  0  0  0  0  0  0  0
   -3.3934    0.6218   -0.4920 H   0  0  0  0  0  0  0  0  0  0  0  0
   -1.6559   -2.4272   -0.1054 H   0  0  0  0  0  0  0  0  0  0  0  0
    2.5033    1.3788    0.2722 H   0  0  0  0  0  0  0  0  0  0  0  0
    2.0911   -2.8699    0.4258 H   0  0  0  0  0  0  0  0  0  0  0  0
    3.5476   -0.8456    0.5239 H   0  0  0  0  0  0  0  0  0  0  0  0
    2.6909    2.0945    0.1747 H   0  0  0  0  0  0  0  0  0  0  0  0
    2.6603   -2.3562   -0.2799 H   0  0  0  0  0  0  0  0  0  0  0  0
   -2.1800    1.9646    0.2328 H   0  0  0  0  0  0  0  0  0  0  0  0
   -2.9714   -2.2048   -0.1818 H   0  0  0  0  0  0  0  0  0  0  0  0
   -3.8197    0.1321    0.0695 H   0  0  0  0  0  0  0  0  0  0  0  0
   -2.7070   -2.2301   -0.0355 H   0  0  0  0  0  0  0  0  0  0  0  0
   -0.3051   -2.7805   -0.1232 H   0  0  0  0  0  0  0  0  0  0  0  0
   -0.9596    2.7362    0.1536 H   0  0  0  0  0  0  0  0  0  0  0  0
    2.8124    2.2143    0.0321 H   0  0  0  0  0  0  0  0  0  0  0  0
    2.0898   -2.0015   -0.1481 H   0  0  0  0  0  0  0  0  0  0  0  0
    3.7026   -0.1124   -0.1005 H   0  0  0  0  0  0  0  0  0  0  0  0
  2  1  1  0
  3  2  2  0
  4  1  1  0
  5  2  1  0
  6  4  2  0
  7  6  1  0
  8  4  1  0
  9  5  1  0
 10  1  2  0
 11 12  2  0
 12 10  1  0
 11  3  1  0
  7  5  2  0
 14 13  2  0
 15 13  1  0
 16 14  1  0
 17 15  2  0
 18 17  1  0
 19 13  1  0
 20 14  1  0
 21 16  1  0
 22 17  1  0
 23 15  1  0
 24 19  2  0
 25 23  2  0
 16 18  2  0
 24 25  1  0
 27 26  2  0
 28 26  1  0
 29 27  1  0
 30 27  1  0
 31 28  2  0
 32 31  1  0
 33 26  1  0
 34 28  1  0
 35 29  2  0
 36 30  1  0
 37 36  2  0
 32 30  2  0
 35 37  1  0
  6 38  1  0
  7 39  1  0
  9 40  1  0
 10 41  1  0
 11 42  1  0
 12 43  1  0
 18 44  1  0
 20 45  1  0
 23 46  1  0
 24 47  1  0
 25 48  1  0
 31 49  1  0
 32 50  1  0
 33 51  1  0
 35 52  1  0
 36 53  1  0
 37 54  1  0
M  END
$$$$
