
     RDKit          3D

 54 57  0  0  0  0  0  0  0  0999 V2000
    0.1011   -0.7665   -0.0218 C   0  0  0  0  0  0  0  0  0  0  0  0
    0.3090    0.6315    0.0167 C   0  0  0  0  0  0  0  0  0  0  0  0
    1.5535    1.1635    0.0274 N   0  0  0  0  0  0  0  0  0  0  0  0
   -1.2264   -1.2655   -0.0313 C   0  0  0  0  0  0  0  0  0  0  0  0
   -0.8208    1.4652    0.0438 C   0  0  0  0  0  0  0  0  0  0  0  0
   -2.3257   -0.4054   -0.0035 C   0  0  0  0  0  0  0  0  0  0  0  0
   -2.1247    0.9669    0.0342 C   0  0  0  0  0  0  0  0  0  0  0  0
   -1.5689   -2.9647   -0.0777 Cl  0  0  0  0  0  0  0  0  0  0  0  0
   -0.6402    2.8294    0.0813 O   0  0  0  0  0  0  0  0  0  0  0  0
    1.2524   -1.5871   -0.0486 C   0  0  0  0  0  0  0  0  0  0  0  0
    2.6216    0.3418    0.0008 C   0  0  0  0  0  0  0  0  0  0  0  0
    2.5247   -1.0304   -0.0373 C   0  0  0  0  0  0  0  0  0  0  0  0
    0.2095   -0.6095   -0.0700 C   0  0  0  0  0  0  0  0  0  0  0  0
    1.5951   -0.5606   -0.2009 C   0  0  0  0  0  0  0  0  0  0  0  0
   -0.5050    0.5947    0.0976 C   0  0  0  0  0  0  0  0  0  0  0  0
    2.2976    0.6432   -0.1713 C   0  0  0  0  0  0  0  0  0  0  0  0
    0.2176    1.8148    0.1266 C   0  0  0  0  0  0  0  0  0  0  0  0
    1.6069    1.8370   -0.0068 C   0  0  0  0  0  0  0  0  0  0  0  0
   -0.3845   -1.8216   -0.1109 N   0  0  0  0  0  0  0  0  0  0  0  0
    2.2681   -1.7530   -0.3635 O   0  0  0  0  0  0  0  0  0  0  0  0
    4.0132    0.6937   -0.3341 Cl  0  0  0  0  0  0  0  0  0  0  0  0
   -0.5784    3.3401    0.3283 Cl  0  0  0  0  0  0  0  0  0  0  0  0
   -1.9073    0.4822    0.2249 C   0  0  0  0  0  0  0  0  0  0  0  0
   -1.7279   -1.8757    0.0155 C   0  0  0  0  0  0  0  0  0  0  0  0
   -2.5253   -0.7630    0.1837 C   0  0  0  0  0  0  0  0  0  0  0  0
    1.4725    0.8324    0.0198 C   0  0  0  0  0  0  0  0  0  0  0  0
    0.0938    0.6331    0.0302 C   0  0  0  0  0  0  0  0  0  0  0  0
    2.3681   -0.2362   -0.0467 C   0  0  0  0  0  0  0  0  0  0  0  0
   -0.7235    1.7064    0.0958 N   0  0  0  0  0  0  0  0  0  0  0  0
   -0.3916   -0.6899   -0.0287 C   0  0  0  0  0  0  0  0  0  0  0  0
    1.8829   -1.5409   -0.1046 C   0  0  0  0  0  0  0  0  0  0  0  0
    0.5063   -1.7698   -0.0958 C   0  0  0  0  0  0  0  0  0  0  0  0
    1.9353    2.1300    0.0778 O   0  0  0  0  0  0  0  0  0  0  0  0
    4.0744    0.0136   -0.0594 Cl  0  0  0  0  0  0  0  0  0  0  0  0
   -2.0564    1.4808    0.1042 C   0  0  0  0  0  0  0  0  0  0  0  0
   -1.7797   -0.8783   -0.0176 C   0  0  0  0  0  0  0  0  0  0  0  0
   -2.6263    0.2224    0.0498 C   0  0  0  0  0  0  0  0  0  0  0  0
   -3.3381   -0.8020   -0.0112 H   0  0  0  0  0  0  0  0  0  0  0  0
   -2.9831    1.6313    0.0557 H   0  0  0  0  0  0  0  0  0  0  0  0
   -1.5000    3.2757    0.0964 H   0  0  0  0  0  0  0  0  0  0  0  0
    1.1666   -2.6707   -0.0786 H   0  0  0  0  0  0  0  0  0  0  0  0
    3.5870    0.8393    0.0115 H   0  0  0  0  0  0  0  0  0  0  0  0
    3.4120   -1.6523   -0.0577 H   0  0  0  0  0  0  0  0  0  0  0  0
    2.1468    2.7803    0.0175 H   0  0  0  0  0  0  0  0  0  0  0  0
    1.5637   -2.4364   -0.3506 H   0  0  0  0  0  0  0  0  0  0  0  0
   -2.5298    1.3645    0.3574 H   0  0  0  0  0  0  0  0  0  0  0  0
   -2.1592   -2.8725   -0.0238 H   0  0  0  0  0  0  0  0  0  0  0  0
   -3.6012   -0.8583    0.2806 H   0  0  0  0  0  0  0  0  0  0  0  0
    2.5702   -2.3816   -0.1567 H   0  0  0  0  0  0  0  0  0  0  0  0
    0.1390   -2.7929   -0.1414 H   0  0  0  0  0  0  0  0  0  0  0  0
    1.1211    2.6759    0.1169 H   0  0  0  0  0  0  0  0  0  0  0  0
   -2.6763    2.3719    0.1578 H   0  0  0  0  0  0  0  0  0  0  0  0
   -2.2060   -1.8775   -0.0611 H   0  0  0  0  0  0  0  0  0  0  0  0
   -3.7038    0.1007    0.0596 H   0  0  0  0  0  0  0  0  0  0  0  0
  2  1  1  0
  3  2  2  0
  4  1  1  0
  5  2  1  0
  6  4  2  0
  7  6  1  0
  8  4  1  0
  9  5  1  0
 10  1  2  0
 11 12  2  0
 12 10  1  0
 11  3  1  0
  7  5  2  0
 14 13  2  0
 15 13  1  0
 16 14  1  0
 17 15  2  0
 18 17  1  0
 19 13  1  0
 20 14  1  0
 21 16  1  0
 22 17  1  0
 23 15  1  0
 24 19  2  0
 25 23  2  0
 16 18  2  0
 24 25  1  0
 27 26  2  0
 28 26  1  0
 29 27  1  0
 30 27  1  0
 31 28  2  0
 32 31  1  0
 33 26  1  0
 34 28  1  0
 35 29  2  0
 36 30  1  0
 37 36  2  0
 32 30  2  0
 35 37  1  0
  6 38  1  0
  7 39  1  0
  9 40  1  0
 10 41  1  0
 11 42  1  0
 12 43  1  0
 18 44  1  0
 20 45  1  0
 23 46  1  0
 24 47  1  0
 25 48  1  0
 31 49  1  0
 32 50  1  0
 33 51  1  0
 35 52  1  0
 36 53  1  0
 37 54  1  0
M  END
$$$$
