
     RDKit          3D

 24 23  0  0  0  0  0  0  0  0999 V2000
    0.0000    0.0000    0.0000 Na  0  0  0  0  0 15  0  0  0  0  0  0
    3.7839    0.1756   -1.0936 C   0  0  0  0  0  0  0  0  0  0  0  0
    4.1155    1.3815   -1.2690 O   0  0  0  0  0  0  0  0  0  0  0  0
    4.0604   -0.8490   -1.7783 O   0  0  0  0  0  0  0  0  0  0  0  0
   -0.9048   -0.0985    0.6136 C   0  0  0  0  0  0  0  0  0  0  0  0
    2.9335   -0.0864    0.1456 C   0  0  0  0  0  0  0  0  0  0  0  0
    1.4645    0.0388   -0.2435 C   0  0  0  0  0  0  0  0  0  0  0  0
    0.5596   -0.2143    0.9622 C   0  0  0  0  0  0  0  0  0  0  0  0
   -1.5612    1.1357    0.7042 C   0  0  0  0  0  0  0  0  0  0  0  0
   -1.6194   -1.2174    0.1666 C   0  0  0  0  0  0  0  0  0  0  0  0
   -2.9703   -1.1073   -0.1672 C   0  0  0  0  0  0  0  0  0  0  0  0
   -2.9121    1.2450    0.3701 C   0  0  0  0  0  0  0  0  0  0  0  0
   -3.6171    0.1232   -0.0631 C   0  0  0  0  0  0  0  0  0  0  0  0
    3.1909    0.6348    0.9300 H   0  0  0  0  0  0  0  0  0  0  0  0
    3.1483   -1.0876    0.5368 H   0  0  0  0  0  0  0  0  0  0  0  0
    1.2288   -0.6734   -1.0451 H   0  0  0  0  0  0  0  0  0  0  0  0
    1.2710    1.0383   -0.6541 H   0  0  0  0  0  0  0  0  0  0  0  0
    0.7956    0.4943    1.7664 H   0  0  0  0  0  0  0  0  0  0  0  0
    0.7535   -1.2121    1.3766 H   0  0  0  0  0  0  0  0  0  0  0  0
   -1.0146    2.0192    1.0266 H   0  0  0  0  0  0  0  0  0  0  0  0
   -1.1184   -2.1779    0.0678 H   0  0  0  0  0  0  0  0  0  0  0  0
   -3.5124   -1.9809   -0.5173 H   0  0  0  0  0  0  0  0  0  0  0  0
   -3.4089    2.2083    0.4397 H   0  0  0  0  0  0  0  0  0  0  0  0
   -4.6661    0.2100   -0.3297 H   0  0  0  0  0  0  0  0  0  0  0  0
  3  2  1  0
  4  2  2  0
  5  8  1  0
  6  2  1  0
  7  6  1  0
  8  7  1  0
  9  5  2  0
 10  5  1  0
 11 10  2  0
 12  9  1  0
 13 12  2  0
 13 11  1  0
  6 14  1  0
  6 15  1  0
  7 16  1  0
  7 17  1  0
  8 18  1  0
  8 19  1  0
  9 20  1  0
 10 21  1  0
 11 22  1  0
 12 23  1  0
 13 24  1  0
M  CHG  2   1   1   3  -1
M  END
$$$$
