
     RDKit          3D

 24 23  0  0  0  0  0  0  0  0999 V2000
    0.0000    0.0000    0.0000 Na  0  0  0  0  0 15  0  0  0  0  0  0
    3.8765    0.7970   -0.4816 C   0  0  0  0  0  0  0  0  0  0  0  0
    4.0419    1.8688   -1.1288 O   0  0  0  0  0  0  0  0  0  0  0  0
    4.4679    0.3741    0.5511 O   0  0  0  0  0  0  0  0  0  0  0  0
   -0.9764   -0.3825   -0.3007 C   0  0  0  0  0  0  0  0  0  0  0  0
    2.8105   -0.1385   -1.0437 C   0  0  0  0  0  0  0  0  0  0  0  0
    1.4747    0.2092   -0.3957 C   0  0  0  0  0  0  0  0  0  0  0  0
    0.3630   -0.6986   -0.9216 C   0  0  0  0  0  0  0  0  0  0  0  0
   -1.3757   -1.0114    0.8856 C   0  0  0  0  0  0  0  0  0  0  0  0
   -1.8250    0.5655   -0.8867 C   0  0  0  0  0  0  0  0  0  0  0  0
   -3.0580    0.8665   -0.3057 C   0  0  0  0  0  0  0  0  0  0  0  0
   -2.6089   -0.7099    1.4659 C   0  0  0  0  0  0  0  0  0  0  0  0
   -3.4509    0.2270    0.8690 C   0  0  0  0  0  0  0  0  0  0  0  0
    2.7558   -0.0250   -2.1326 H   0  0  0  0  0  0  0  0  0  0  0  0
    3.0846   -1.1792   -0.8354 H   0  0  0  0  0  0  0  0  0  0  0  0
    1.2259    1.2598   -0.5941 H   0  0  0  0  0  0  0  0  0  0  0  0
    1.5528    0.1128    0.6951 H   0  0  0  0  0  0  0  0  0  0  0  0
    0.2852   -0.6066   -2.0126 H   0  0  0  0  0  0  0  0  0  0  0  0
    0.6111   -1.7501   -0.7274 H   0  0  0  0  0  0  0  0  0  0  0  0
   -0.7179   -1.7323    1.3662 H   0  0  0  0  0  0  0  0  0  0  0  0
   -1.5193    1.0803   -1.7949 H   0  0  0  0  0  0  0  0  0  0  0  0
   -3.7052    1.6069   -0.7666 H   0  0  0  0  0  0  0  0  0  0  0  0
   -2.9053   -1.2004    2.3885 H   0  0  0  0  0  0  0  0  0  0  0  0
   -4.4071    0.4666    1.3246 H   0  0  0  0  0  0  0  0  0  0  0  0
  3  2  1  0
  4  2  2  0
  5  8  1  0
  6  2  1  0
  7  6  1  0
  8  7  1  0
  9  5  2  0
 10  5  1  0
 11 10  2  0
 12  9  1  0
 13 12  2  0
 13 11  1  0
  6 14  1  0
  6 15  1  0
  7 16  1  0
  7 17  1  0
  8 18  1  0
  8 19  1  0
  9 20  1  0
 10 21  1  0
 11 22  1  0
 12 23  1  0
 13 24  1  0
M  CHG  2   1   1   3  -1
M  END
$$$$
