
     RDKit          3D

 24 23  0  0  0  0  0  0  0  0999 V2000
    0.0000    0.0000    0.0000 Na  0  0  0  0  0 15  0  0  0  0  0  0
    3.9621    0.4604   -0.8083 C   0  0  0  0  0  0  0  0  0  0  0  0
    3.5596    1.4394   -1.4929 O   0  0  0  0  0  0  0  0  0  0  0  0
    5.1409    0.0368   -0.6297 O   0  0  0  0  0  0  0  0  0  0  0  0
   -0.9550   -0.3138    0.3464 C   0  0  0  0  0  0  0  0  0  0  0  0
    2.8922   -0.3526   -0.0753 C   0  0  0  0  0  0  0  0  0  0  0  0
    1.4556    0.1262   -0.2649 C   0  0  0  0  0  0  0  0  0  0  0  0
    0.4784   -0.7583    0.5107 C   0  0  0  0  0  0  0  0  0  0  0  0
   -1.7383   -0.8137   -0.7019 C   0  0  0  0  0  0  0  0  0  0  0  0
   -1.5128    0.6255    1.2235 C   0  0  0  0  0  0  0  0  0  0  0  0
   -2.8348    1.0443    1.0647 C   0  0  0  0  0  0  0  0  0  0  0  0
   -3.0603   -0.3942   -0.8600 C   0  0  0  0  0  0  0  0  0  0  0  0
   -3.6091    0.5327    0.0247 C   0  0  0  0  0  0  0  0  0  0  0  0
    2.9775   -1.3921   -0.4161 H   0  0  0  0  0  0  0  0  0  0  0  0
    3.1426   -0.3390    0.9929 H   0  0  0  0  0  0  0  0  0  0  0  0
    1.2002    0.1188   -1.3322 H   0  0  0  0  0  0  0  0  0  0  0  0
    1.3645    1.1672    0.0705 H   0  0  0  0  0  0  0  0  0  0  0  0
    0.5716   -1.8014    0.1819 H   0  0  0  0  0  0  0  0  0  0  0  0
    0.7351   -0.7580    1.5779 H   0  0  0  0  0  0  0  0  0  0  0  0
   -1.3133   -1.5257   -1.4058 H   0  0  0  0  0  0  0  0  0  0  0  0
   -0.9109    1.0412    2.0285 H   0  0  0  0  0  0  0  0  0  0  0  0
   -3.2544    1.7769    1.7479 H   0  0  0  0  0  0  0  0  0  0  0  0
   -3.6560   -0.7850   -1.6797 H   0  0  0  0  0  0  0  0  0  0  0  0
   -4.6353    0.8643   -0.1030 H   0  0  0  0  0  0  0  0  0  0  0  0
  3  2  1  0
  4  2  2  0
  5  8  1  0
  6  2  1  0
  7  6  1  0
  8  7  1  0
  9  5  2  0
 10  5  1  0
 11 10  2  0
 12  9  1  0
 13 12  2  0
 13 11  1  0
  6 14  1  0
  6 15  1  0
  7 16  1  0
  7 17  1  0
  8 18  1  0
  8 19  1  0
  9 20  1  0
 10 21  1  0
 11 22  1  0
 12 23  1  0
 13 24  1  0
M  CHG  2   1   1   3  -1
M  END
$$$$
