
     RDKit          3D

 24 23  0  0  0  0  0  0  0  0999 V2000
    0.0000    0.0000    0.0000 Na  0  0  0  0  0 15  0  0  0  0  0  0
    4.0476    0.0686   -0.4776 C   0  0  0  0  0  0  0  0  0  0  0  0
    5.1762    0.1009    0.0934 O   0  0  0  0  0  0  0  0  0  0  0  0
    3.7747    0.0397   -1.7080 O   0  0  0  0  0  0  0  0  0  0  0  0
   -1.0030   -0.0122    0.2944 C   0  0  0  0  0  0  0  0  0  0  0  0
    2.8618    0.0648    0.4902 C   0  0  0  0  0  0  0  0  0  0  0  0
    1.4812    0.0261   -0.1591 C   0  0  0  0  0  0  0  0  0  0  0  0
    0.3790    0.0257    0.9010 C   0  0  0  0  0  0  0  0  0  0  0  0
   -1.6250   -1.2369    0.0193 C   0  0  0  0  0  0  0  0  0  0  0  0
   -1.6707    1.1766   -0.0273 C   0  0  0  0  0  0  0  0  0  0  0  0
   -2.9440    1.1410   -0.5982 C   0  0  0  0  0  0  0  0  0  0  0  0
   -2.8983   -1.2715   -0.5516 C   0  0  0  0  0  0  0  0  0  0  0  0
   -3.5587   -0.0828   -0.8580 C   0  0  0  0  0  0  0  0  0  0  0  0
    2.9447    0.9621    1.1162 H   0  0  0  0  0  0  0  0  0  0  0  0
    2.9782   -0.8041    1.1502 H   0  0  0  0  0  0  0  0  0  0  0  0
    1.3933   -0.8675   -0.7901 H   0  0  0  0  0  0  0  0  0  0  0  0
    1.3600    0.8907   -0.8240 H   0  0  0  0  0  0  0  0  0  0  0  0
    0.5012   -0.8347    1.5716 H   0  0  0  0  0  0  0  0  0  0  0  0
    0.4681    0.9152    1.5378 H   0  0  0  0  0  0  0  0  0  0  0  0
   -1.1106   -2.1692    0.2411 H   0  0  0  0  0  0  0  0  0  0  0  0
   -1.1921    2.1355    0.1580 H   0  0  0  0  0  0  0  0  0  0  0  0
   -3.4494    2.0693   -0.8480 H   0  0  0  0  0  0  0  0  0  0  0  0
   -3.3681   -2.2272   -0.7651 H   0  0  0  0  0  0  0  0  0  0  0  0
   -4.5461   -0.1102   -1.3089 H   0  0  0  0  0  0  0  0  0  0  0  0
  3  2  1  0
  4  2  2  0
  5  8  1  0
  6  2  1  0
  7  6  1  0
  8  7  1  0
  9  5  2  0
 10  5  1  0
 11 10  2  0
 12  9  1  0
 13 12  2  0
 13 11  1  0
  6 14  1  0
  6 15  1  0
  7 16  1  0
  7 17  1  0
  8 18  1  0
  8 19  1  0
  9 20  1  0
 10 21  1  0
 11 22  1  0
 12 23  1  0
 13 24  1  0
M  CHG  2   1   1   3  -1
M  END
$$$$
