
     RDKit          3D

 24 23  0  0  0  0  0  0  0  0999 V2000
    0.0000    0.0000    0.0000 Na  0  0  0  0  0 15  0  0  0  0  0  0
    2.9814    0.9491    0.0759 C   0  0  0  0  0  0  0  0  0  0  0  0
    2.7371    2.1731    0.2724 O   0  0  0  0  0  0  0  0  0  0  0  0
    3.8300    0.1997    0.6354 O   0  0  0  0  0  0  0  0  0  0  0  0
   -0.6535   -0.4066    0.4626 C   0  0  0  0  0  0  0  0  0  0  0  0
    2.1187    0.2854   -0.9993 C   0  0  0  0  0  0  0  0  0  0  0  0
    1.5736   -1.0802   -0.5826 C   0  0  0  0  0  0  0  0  0  0  0  0
    0.6949   -1.0540    0.6744 C   0  0  0  0  0  0  0  0  0  0  0  0
   -1.7397   -1.1543   -0.0115 C   0  0  0  0  0  0  0  0  0  0  0  0
   -0.8309    0.9585    0.7222 C   0  0  0  0  0  0  0  0  0  0  0  0
   -2.0725    1.5626    0.5198 C   0  0  0  0  0  0  0  0  0  0  0  0
   -2.9824   -0.5497   -0.2110 C   0  0  0  0  0  0  0  0  0  0  0  0
   -3.1489    0.8085    0.0560 C   0  0  0  0  0  0  0  0  0  0  0  0
    1.2978    0.9509   -1.2888 H   0  0  0  0  0  0  0  0  0  0  0  0
    2.7474    0.1625   -1.8897 H   0  0  0  0  0  0  0  0  0  0  0  0
    2.4151   -1.7595   -0.3972 H   0  0  0  0  0  0  0  0  0  0  0  0
    1.0120   -1.5080   -1.4224 H   0  0  0  0  0  0  0  0  0  0  0  0
    1.2126   -0.5677    1.5098 H   0  0  0  0  0  0  0  0  0  0  0  0
    0.5289   -2.0881    1.0049 H   0  0  0  0  0  0  0  0  0  0  0  0
   -1.6162   -2.2119   -0.2296 H   0  0  0  0  0  0  0  0  0  0  0  0
    0.0111    1.5610    1.0664 H   0  0  0  0  0  0  0  0  0  0  0  0
   -2.1875    2.6246    0.7170 H   0  0  0  0  0  0  0  0  0  0  0  0
   -3.8170   -1.1380   -0.5799 H   0  0  0  0  0  0  0  0  0  0  0  0
   -4.1124    1.2823   -0.1047 H   0  0  0  0  0  0  0  0  0  0  0  0
  3  2  1  0
  4  2  2  0
  5  8  1  0
  6  2  1  0
  7  6  1  0
  8  7  1  0
  9  5  2  0
 10  5  1  0
 11 10  2  0
 12  9  1  0
 13 12  2  0
 13 11  1  0
  6 14  1  0
  6 15  1  0
  7 16  1  0
  7 17  1  0
  8 18  1  0
  8 19  1  0
  9 20  1  0
 10 21  1  0
 11 22  1  0
 12 23  1  0
 13 24  1  0
M  CHG  2   1   1   3  -1
M  END
$$$$
