
     RDKit          3D

 24 23  0  0  0  0  0  0  0  0999 V2000
    0.0000    0.0000    0.0000 Na  0  0  0  0  0 15  0  0  0  0  0  0
    3.3025   -0.8064    1.5072 C   0  0  0  0  0  0  0  0  0  0  0  0
    3.0224    0.3610    1.8946 O   0  0  0  0  0  0  0  0  0  0  0  0
    4.0127   -1.6895    2.0678 O   0  0  0  0  0  0  0  0  0  0  0  0
   -0.9307    0.0872    0.0319 C   0  0  0  0  0  0  0  0  0  0  0  0
    2.7133   -1.2359    0.1603 C   0  0  0  0  0  0  0  0  0  0  0  0
    1.5048   -0.4421   -0.3274 C   0  0  0  0  0  0  0  0  0  0  0  0
    0.2701   -0.6706    0.5498 C   0  0  0  0  0  0  0  0  0  0  0  0
   -1.0952    1.4416    0.3506 C   0  0  0  0  0  0  0  0  0  0  0  0
   -1.8773   -0.5394   -0.7883 C   0  0  0  0  0  0  0  0  0  0  0  0
   -2.9758    0.1743   -1.2713 C   0  0  0  0  0  0  0  0  0  0  0  0
   -2.1931    2.1542   -0.1329 C   0  0  0  0  0  0  0  0  0  0  0  0
   -3.1341    1.5202   -0.9427 C   0  0  0  0  0  0  0  0  0  0  0  0
    2.4547   -2.3009    0.2092 H   0  0  0  0  0  0  0  0  0  0  0  0
    3.5181   -1.1375   -0.5789 H   0  0  0  0  0  0  0  0  0  0  0  0
    1.2800   -0.7474   -1.3575 H   0  0  0  0  0  0  0  0  0  0  0  0
    1.7477    0.6270   -0.3695 H   0  0  0  0  0  0  0  0  0  0  0  0
    0.4592   -0.3661    1.5860 H   0  0  0  0  0  0  0  0  0  0  0  0
    0.0341   -1.7417    0.5911 H   0  0  0  0  0  0  0  0  0  0  0  0
   -0.3564    1.9403    0.9771 H   0  0  0  0  0  0  0  0  0  0  0  0
   -1.7575   -1.5867   -1.0538 H   0  0  0  0  0  0  0  0  0  0  0  0
   -3.7048   -0.3209   -1.9059 H   0  0  0  0  0  0  0  0  0  0  0  0
   -2.3072    3.2036    0.1225 H   0  0  0  0  0  0  0  0  0  0  0  0
   -3.9874    2.0758   -1.3198 H   0  0  0  0  0  0  0  0  0  0  0  0
  3  2  1  0
  4  2  2  0
  5  8  1  0
  6  2  1  0
  7  6  1  0
  8  7  1  0
  9  5  2  0
 10  5  1  0
 11 10  2  0
 12  9  1  0
 13 12  2  0
 13 11  1  0
  6 14  1  0
  6 15  1  0
  7 16  1  0
  7 17  1  0
  8 18  1  0
  8 19  1  0
  9 20  1  0
 10 21  1  0
 11 22  1  0
 12 23  1  0
 13 24  1  0
M  CHG  2   1   1   3  -1
M  END
$$$$
