
     RDKit          3D

132133  0  0  0  0  0  0  0  0999 V2000
    0.0098    0.3978    0.0000 O   0  0  0  0  0  0  0  0  0  0  0  0
   -2.4144   -0.9580   -1.0331 N   0  0  0  0  0  0  0  0  0  0  0  0
   -1.3741   -1.1744   -0.0048 C   0  0  1  0  0  0  0  0  0  0  0  0
   -1.5098   -0.6029   -1.9979 C   0  0  0  0  0  0  0  0  0  0  0  0
   -0.3130   -1.0383   -1.1247 C   0  0  1  0  0  0  0  0  0  0  0  0
   -3.5085   -0.0413   -0.7130 C   0  0  2  0  0  0  0  0  0  0  0  0
   -1.6182    0.2419    1.1477 S   0  0  0  0  0  0  0  0  0  0  0  0
   -3.4422    0.2679    0.7951 C   0  0  0  0  0  0  0  0  0  0  0  0
    0.7601   -0.0261   -0.9356 N   0  0  0  0  0  0  0  0  0  0  0  0
   -4.8370   -0.6349   -1.1621 C   0  0  0  0  0  0  0  0  0  0  0  0
    1.7811   -0.2430   -0.0324 C   0  0  0  0  0  0  0  0  0  0  0  0
   -1.6609   -0.0216   -3.0481 O   0  0  0  0  0  0  0  0  0  0  0  0
   -5.1141   -1.8156   -1.2983 O   0  0  0  0  0  0  0  0  0  0  0  0
    1.8737   -1.2970    0.5927 O   0  0  0  0  0  0  0  0  0  0  0  0
    2.7254    0.9339    0.1459 C   0  0  0  0  0  0  0  0  0  0  0  0
   -5.7787    0.3077   -1.3775 O   0  0  0  0  0  0  0  0  0  0  0  0
   -3.9825    1.6625    1.1202 C   0  0  0  0  0  0  0  0  0  0  0  0
   -4.1199   -0.7809    1.6890 C   0  0  0  0  0  0  0  0  0  0  0  0
    4.1831    0.5623    0.0304 C   0  0  0  0  0  0  0  0  0  0  0  0
    4.8677    0.0299    1.1314 C   0  0  0  0  0  0  0  0  0  0  0  0
    4.8724    0.7353   -1.1790 C   0  0  0  0  0  0  0  0  0  0  0  0
    6.2195   -0.3021    1.0309 C   0  0  0  0  0  0  0  0  0  0  0  0
    6.2249    0.4032   -1.2757 C   0  0  0  0  0  0  0  0  0  0  0  0
    6.8992   -0.1118   -0.1703 C   0  0  0  0  0  0  0  0  0  0  0  0
    0.9561   -0.8816    0.0584 N   0  0  0  0  0  0  0  0  0  0  0  0
   -1.2544    0.9551   -0.1846 N   0  0  0  0  0  0  0  0  0  0  0  0
   -3.5273    0.0542   -0.1750 C   0  0  0  0  0  0  0  0  0  0  0  0
    3.3187   -0.3163    0.6458 C   0  0  0  0  0  0  0  0  0  0  0  0
    1.8648   -0.3064    1.0582 C   0  0  0  0  0  0  0  0  0  0  0  0
   -2.2570    0.2329   -0.9719 C   0  0  0  0  0  0  0  0  0  0  0  0
    0.8443   -0.0538   -1.1556 C   0  0  0  0  0  0  0  0  0  0  0  0
   -0.0272    1.2072   -0.9588 C   0  0  0  0  0  0  0  0  0  0  0  0
   -4.6383    0.8791   -0.4012 C   0  0  0  0  0  0  0  0  0  0  0  0
   -3.6026   -0.9274    0.8249 C   0  0  0  0  0  0  0  0  0  0  0  0
    3.9374   -1.5071    0.2373 C   0  0  0  0  0  0  0  0  0  0  0  0
    4.0791    0.8606    0.6910 C   0  0  0  0  0  0  0  0  0  0  0  0
   -5.8054    0.7128    0.3471 C   0  0  0  0  0  0  0  0  0  0  0  0
    5.2828   -1.5184   -0.1323 C   0  0  0  0  0  0  0  0  0  0  0  0
    5.4252    0.8488    0.3195 C   0  0  0  0  0  0  0  0  0  0  0  0
   -4.7700   -1.0922    1.5705 C   0  0  0  0  0  0  0  0  0  0  0  0
   -5.8721   -0.2742    1.3301 C   0  0  0  0  0  0  0  0  0  0  0  0
    6.0258   -0.3393   -0.0932 C   0  0  0  0  0  0  0  0  0  0  0  0
   -2.3508   -1.5322    0.9692 N   0  0  0  0  0  0  0  0  0  0  0  0
   -1.2958   -0.6338    1.4725 C   0  0  1  0  0  0  0  0  0  0  0  0
   -1.5410   -2.1075    0.0328 C   0  0  0  0  0  0  0  0  0  0  0  0
   -0.2755   -1.4962    0.6762 C   0  0  1  0  0  0  0  0  0  0  0  0
   -3.6264   -0.9284    0.6124 C   0  0  2  0  0  0  0  0  0  0  0  0
   -1.7115    1.0246    0.7853 S   0  0  0  0  0  0  0  0  0  0  0  0
   -3.3482    0.5007    0.0890 C   0  0  0  0  0  0  0  0  0  0  0  0
    0.6532   -0.7938   -0.2501 N   0  0  0  0  0  0  0  0  0  0  0  0
   -4.5116   -0.9716    1.8552 C   0  0  0  0  0  0  0  0  0  0  0  0
    1.6865   -0.0218    0.2410 C   0  0  0  0  0  0  0  0  0  0  0  0
   -1.8018   -2.7336   -0.9683 O   0  0  0  0  0  0  0  0  0  0  0  0
   -4.1616   -0.8595    3.0188 O   0  0  0  0  0  0  0  0  0  0  0  0
    1.9096    0.0668    1.4447 O   0  0  0  0  0  0  0  0  0  0  0  0
    2.4674    0.7280   -0.8242 C   0  0  0  0  0  0  0  0  0  0  0  0
   -5.8202   -1.1194    1.5556 O   0  0  0  0  0  0  0  0  0  0  0  0
   -3.2159    0.5076   -1.4430 C   0  0  0  0  0  0  0  0  0  0  0  0
   -4.3939    1.5488    0.4919 C   0  0  0  0  0  0  0  0  0  0  0  0
    3.9630    0.6424   -0.6472 C   0  0  0  0  0  0  0  0  0  0  0  0
    4.6956   -0.3981   -1.2365 C   0  0  0  0  0  0  0  0  0  0  0  0
    4.6404    1.5947    0.1281 C   0  0  0  0  0  0  0  0  0  0  0  0
    6.0800   -0.4722   -1.0682 C   0  0  0  0  0  0  0  0  0  0  0  0
    6.0239    1.5190    0.2945 C   0  0  0  0  0  0  0  0  0  0  0  0
    6.7433    0.4885   -0.3073 C   0  0  0  0  0  0  0  0  0  0  0  0
    0.0122    0.3978    0.0000 O   0  0  0  0  0  0  0  0  0  0  0  0
    0.0001    0.3979    0.0000 O   0  0  0  0  0  0  0  0  0  0  0  0
    0.0123    0.3980    0.0000 O   0  0  0  0  0  0  0  0  0  0  0  0
   -0.7676   -0.1798    0.0000 H   0  0  0  0  0  0  0  0  0  0  0  0
    0.7578   -0.2180    0.0000 H   0  0  0  0  0  0  0  0  0  0  0  0
   -1.4423   -2.1633    0.4586 H   0  0  0  0  0  0  0  0  0  0  0  0
    0.1056   -1.9953   -1.4630 H   0  0  0  0  0  0  0  0  0  0  0  0
   -3.3546    0.8756   -1.3014 H   0  0  0  0  0  0  0  0  0  0  0  0
    0.6401    0.9037   -1.3283 H   0  0  0  0  0  0  0  0  0  0  0  0
    2.5297    1.3718    1.1320 H   0  0  0  0  0  0  0  0  0  0  0  0
    2.4942    1.7226   -0.5802 H   0  0  0  0  0  0  0  0  0  0  0  0
   -6.5576   -0.1999   -1.6889 H   0  0  0  0  0  0  0  0  0  0  0  0
   -5.0571    1.7206    0.9122 H   0  0  0  0  0  0  0  0  0  0  0  0
   -3.4910    2.4404    0.5227 H   0  0  0  0  0  0  0  0  0  0  0  0
   -3.8443    1.9137    2.1789 H   0  0  0  0  0  0  0  0  0  0  0  0
   -5.2072   -0.7661    1.5517 H   0  0  0  0  0  0  0  0  0  0  0  0
   -3.7772   -1.7992    1.4712 H   0  0  0  0  0  0  0  0  0  0  0  0
   -3.9317   -0.5811    2.7515 H   0  0  0  0  0  0  0  0  0  0  0  0
    4.3478   -0.1358    2.0732 H   0  0  0  0  0  0  0  0  0  0  0  0
    4.3646    1.1337   -2.0545 H   0  0  0  0  0  0  0  0  0  0  0  0
    6.7411   -0.7132    1.8913 H   0  0  0  0  0  0  0  0  0  0  0  0
    6.7543    0.5459   -2.2145 H   0  0  0  0  0  0  0  0  0  0  0  0
    7.9518   -0.3710   -0.2474 H   0  0  0  0  0  0  0  0  0  0  0  0
    0.0202   -0.8767    0.4789 H   0  0  0  0  0  0  0  0  0  0  0  0
   -1.6608    1.8492    0.0928 H   0  0  0  0  0  0  0  0  0  0  0  0
    1.5458    0.7059    1.3324 H   0  0  0  0  0  0  0  0  0  0  0  0
    1.7831   -0.9028    1.9755 H   0  0  0  0  0  0  0  0  0  0  0  0
   -2.4831    0.7749   -1.8992 H   0  0  0  0  0  0  0  0  0  0  0  0
   -1.8923   -0.7581   -1.2659 H   0  0  0  0  0  0  0  0  0  0  0  0
    1.8255    0.2230   -1.5569 H   0  0  0  0  0  0  0  0  0  0  0  0
    0.3765   -0.6802   -1.9243 H   0  0  0  0  0  0  0  0  0  0  0  0
    0.5622    1.9495   -0.4071 H   0  0  0  0  0  0  0  0  0  0  0  0
   -0.2605    1.6600   -1.9292 H   0  0  0  0  0  0  0  0  0  0  0  0
   -4.6031    1.6550   -1.1622 H   0  0  0  0  0  0  0  0  0  0  0  0
   -2.7448   -1.5648    1.0259 H   0  0  0  0  0  0  0  0  0  0  0  0
    3.3603   -2.4290    0.1977 H   0  0  0  0  0  0  0  0  0  0  0  0
    3.6281    1.7952    1.0149 H   0  0  0  0  0  0  0  0  0  0  0  0
   -6.6646    1.3533    0.1636 H   0  0  0  0  0  0  0  0  0  0  0  0
    5.7475   -2.4459   -0.4563 H   0  0  0  0  0  0  0  0  0  0  0  0
    6.0071    1.7658    0.3532 H   0  0  0  0  0  0  0  0  0  0  0  0
   -4.8188   -1.8576    2.3403 H   0  0  0  0  0  0  0  0  0  0  0  0
   -6.7813   -0.4014    1.9125 H   0  0  0  0  0  0  0  0  0  0  0  0
    7.0732   -0.3493   -0.3852 H   0  0  0  0  0  0  0  0  0  0  0  0
   -1.1903   -0.6688    2.5608 H   0  0  0  0  0  0  0  0  0  0  0  0
    0.2642   -2.2321    1.2867 H   0  0  0  0  0  0  0  0  0  0  0  0
   -4.0981   -1.5545   -0.1569 H   0  0  0  0  0  0  0  0  0  0  0  0
    0.4311   -0.7539   -1.2401 H   0  0  0  0  0  0  0  0  0  0  0  0
    2.2042    0.3582   -1.8228 H   0  0  0  0  0  0  0  0  0  0  0  0
    2.1424    1.7761   -0.7971 H   0  0  0  0  0  0  0  0  0  0  0  0
   -6.2634   -1.1367    2.4309 H   0  0  0  0  0  0  0  0  0  0  0  0
   -2.4352   -0.1717   -1.8017 H   0  0  0  0  0  0  0  0  0  0  0  0
   -2.9827    1.5084   -1.8256 H   0  0  0  0  0  0  0  0  0  0  0  0
   -4.1584    0.1966   -1.9087 H   0  0  0  0  0  0  0  0  0  0  0  0
   -4.4681    1.6690    1.5784 H   0  0  0  0  0  0  0  0  0  0  0  0
   -4.1570    2.5349    0.0718 H   0  0  0  0  0  0  0  0  0  0  0  0
   -5.3848    1.2716    0.1155 H   0  0  0  0  0  0  0  0  0  0  0  0
    4.1959   -1.1590   -1.8309 H   0  0  0  0  0  0  0  0  0  0  0  0
    4.0904    2.3970    0.6160 H   0  0  0  0  0  0  0  0  0  0  0  0
    6.6423   -1.2803   -1.5280 H   0  0  0  0  0  0  0  0  0  0  0  0
    6.5383    2.2618    0.8985 H   0  0  0  0  0  0  0  0  0  0  0  0
    7.8205    0.4300   -0.1756 H   0  0  0  0  0  0  0  0  0  0  0  0
    0.7567   -0.2227    0.0000 H   0  0  0  0  0  0  0  0  0  0  0  0
   -0.7689   -0.1751    0.0000 H   0  0  0  0  0  0  0  0  0  0  0  0
    0.7631   -0.1993    0.0000 H   0  0  0  0  0  0  0  0  0  0  0  0
   -0.7633   -0.1986    0.0000 H   0  0  0  0  0  0  0  0  0  0  0  0
    0.7567   -0.2229    0.0000 H   0  0  0  0  0  0  0  0  0  0  0  0
   -0.7690   -0.1751    0.0000 H   0  0  0  0  0  0  0  0  0  0  0  0
  3  2  1  0
  4  2  1  0
  5  3  1  0
  6  2  1  0
  3  7  1  0
  8  6  1  0
  5  9  1  0
  6 10  1  0
 11  9  1  0
 12  4  2  0
 13 10  2  0
 14 11  2  0
 15 11  1  0
 16 10  1  0
 17  8  1  0
 18  8  1  0
 19 15  1  0
 20 19  2  0
 21 19  1  0
 22 20  1  0
 23 21  2  0
 24 23  1  0
  7  8  1  0
  4  5  1  0
 24 22  2  0
 26 32  1  0
 27 30  1  0
 28 29  1  0
 29 25  1  0
 30 26  1  0
 31 25  1  0
 32 31  1  0
 33 27  2  0
 34 27  1  0
 35 28  2  0
 36 28  1  0
 37 33  1  0
 38 35  1  0
 39 36  2  0
 40 34  2  0
 41 37  2  0
 42 39  1  0
 42 38  2  0
 40 41  1  0
 44 43  1  0
 45 43  1  0
 46 44  1  0
 47 43  1  0
 44 48  1  0
 49 47  1  0
 46 50  1  0
 47 51  1  0
 52 50  1  0
 53 45  2  0
 54 51  2  0
 55 52  2  0
 56 52  1  0
 57 51  1  0
 58 49  1  0
 59 49  1  0
 60 56  1  0
 61 60  2  0
 62 60  1  0
 63 61  1  0
 64 62  2  0
 65 64  1  0
 48 49  1  0
 45 46  1  0
 65 63  2  0
  1 69  1  0
  1 70  1  0
  3 71  1  1
  5 72  1  6
  6 73  1  6
  9 74  1  0
 15 75  1  0
 15 76  1  0
 16 77  1  0
 17 78  1  0
 17 79  1  0
 17 80  1  0
 18 81  1  0
 18 82  1  0
 18 83  1  0
 20 84  1  0
 21 85  1  0
 22 86  1  0
 23 87  1  0
 24 88  1  0
 25 89  1  0
 26 90  1  0
 29 91  1  0
 29 92  1  0
 30 93  1  0
 30 94  1  0
 31 95  1  0
 31 96  1  0
 32 97  1  0
 32 98  1  0
 33 99  1  0
 34100  1  0
 35101  1  0
 36102  1  0
 37103  1  0
 38104  1  0
 39105  1  0
 40106  1  0
 41107  1  0
 42108  1  0
 44109  1  1
 46110  1  1
 47111  1  6
 50112  1  0
 56113  1  0
 56114  1  0
 57115  1  0
 58116  1  0
 58117  1  0
 58118  1  0
 59119  1  0
 59120  1  0
 59121  1  0
 61122  1  0
 62123  1  0
 63124  1  0
 64125  1  0
 65126  1  0
 66127  1  0
 66128  1  0
 67129  1  0
 67130  1  0
 68131  1  0
 68132  1  0
M  END
$$$$
