
     RDKit          3D

 68 69  0  0  0  0  0  0  0  0999 V2000
    0.0000    0.0000    0.0000 O   0  0  0  0  0  0  0  0  0  0  0  0
   -1.9424    0.8099    0.0977 N   0  0  0  0  0  0  0  0  0  0  0  0
   -1.9523    0.3377   -1.2669 C   0  0  1  0  0  0  0  0  0  0  0  0
   -0.8031    1.5962   -0.2228 C   0  0  0  0  0  0  0  0  0  0  0  0
   -0.5431    0.7460   -1.4236 C   0  0  1  0  0  0  0  0  0  0  0  0
   -2.9864    0.2634    0.8876 C   0  0  2  0  0  0  0  0  0  0  0  0
   -2.2633   -1.4337   -0.9647 S   0  0  0  0  0  0  0  0  0  0  0  0
   -3.0211   -1.2465    0.6870 C   0  0  0  0  0  0  0  0  0  0  0  0
    0.5201   -0.1717   -1.2694 N   0  0  0  0  0  0  0  0  0  0  0  0
   -4.2905    0.8266    0.3918 C   0  0  0  0  0  0  0  0  0  0  0  0
    1.1790   -0.3181   -0.0202 C   0  0  0  0  0  0  0  0  0  0  0  0
   -0.2464    2.6158    0.3172 O   0  0  0  0  0  0  0  0  0  0  0  0
   -4.2078    1.5587   -0.6336 O   0  0  0  0  0  0  0  0  0  0  0  0
    0.8722    0.3537    1.0077 O   0  0  0  0  0  0  0  0  0  0  0  0
    2.2624   -1.2836    0.0950 C   0  0  0  0  0  0  0  0  0  0  0  0
   -5.4950    0.5557    1.0244 O   0  0  0  0  0  0  0  0  0  0  0  0
   -4.4758   -1.6621    0.6697 C   0  0  0  0  0  0  0  0  0  0  0  0
   -2.1926   -1.9848    1.6989 C   0  0  0  0  0  0  0  0  0  0  0  0
    3.6117   -0.7447    0.2825 C   0  0  0  0  0  0  0  0  0  0  0  0
    4.1763   -0.3615    1.4754 C   0  0  0  0  0  0  0  0  0  0  0  0
    4.4087   -0.6254   -0.8659 C   0  0  0  0  0  0  0  0  0  0  0  0
    5.4792    0.1144    1.4805 C   0  0  0  0  0  0  0  0  0  0  0  0
    5.6874   -0.1627   -0.8848 C   0  0  0  0  0  0  0  0  0  0  0  0
    6.2228    0.2168    0.3536 C   0  0  0  0  0  0  0  0  0  0  0  0
    0.9861   -0.3177   -1.0705 N   0  0  0  0  0  0  0  0  0  0  0  0
   -1.3019   -1.4473    0.1123 N   0  0  0  0  0  0  0  0  0  0  0  0
   -3.3015   -0.1851    0.2469 C   0  0  0  0  0  0  0  0  0  0  0  0
    3.1727    0.7314   -0.9470 C   0  0  0  0  0  0  0  0  0  0  0  0
    1.7960    0.8073   -1.4934 C   0  0  0  0  0  0  0  0  0  0  0  0
   -1.9285   -0.3501    0.8050 C   0  0  0  0  0  0  0  0  0  0  0  0
    0.8570   -0.4119    0.3507 C   0  0  0  0  0  0  0  0  0  0  0  0
    0.0136   -1.6104    0.7054 C   0  0  0  0  0  0  0  0  0  0  0  0
   -3.5196    0.6542   -0.8493 C   0  0  0  0  0  0  0  0  0  0  0  0
   -4.3096   -0.8847    0.8621 C   0  0  0  0  0  0  0  0  0  0  0  0
    4.1160    0.0658   -1.7007 C   0  0  0  0  0  0  0  0  0  0  0  0
    3.5484    1.2891    0.2629 C   0  0  0  0  0  0  0  0  0  0  0  0
   -4.8124    0.7616   -1.3063 C   0  0  0  0  0  0  0  0  0  0  0  0
    5.4070   -0.0555   -1.2815 C   0  0  0  0  0  0  0  0  0  0  0  0
    4.8669    1.1549    0.6718 C   0  0  0  0  0  0  0  0  0  0  0  0
   -5.5916   -0.7556    0.3800 C   0  0  0  0  0  0  0  0  0  0  0  0
   -5.8104    0.0660   -0.6941 C   0  0  0  0  0  0  0  0  0  0  0  0
    5.8118    0.4881   -0.0820 C   0  0  0  0  0  0  0  0  0  0  0  0
   -2.2893   -0.4636    0.1194 N   0  0  0  0  0  0  0  0  0  0  0  0
   -2.0782    0.5760    1.1146 C   0  0  1  0  0  0  0  0  0  0  0  0
   -1.5383   -1.4161    0.8672 C   0  0  0  0  0  0  0  0  0  0  0  0
   -1.1598   -0.3586    1.7901 C   0  0  1  0  0  0  0  0  0  0  0  0
   -3.1023    0.1917   -0.9161 C   0  0  2  0  0  0  0  0  0  0  0  0
   -1.3270    1.8130   -0.0125 S   0  0  0  0  0  0  0  0  0  0  0  0
   -2.2296    1.2758   -1.5214 C   0  0  0  0  0  0  0  0  0  0  0  0
    0.1904   -0.0267    2.0065 N   0  0  0  0  0  0  0  0  0  0  0  0
   -4.2098    0.8843   -0.1962 C   0  0  0  0  0  0  0  0  0  0  0  0
    1.2538   -0.3034    1.1018 C   0  0  0  0  0  0  0  0  0  0  0  0
   -1.3494   -2.6547    0.7006 O   0  0  0  0  0  0  0  0  0  0  0  0
   -5.0474    1.5233   -0.8806 O   0  0  0  0  0  0  0  0  0  0  0  0
    1.0875   -0.8807    0.0033 O   0  0  0  0  0  0  0  0  0  0  0  0
    2.6199    0.1450    1.5458 C   0  0  0  0  0  0  0  0  0  0  0  0
   -4.3586    0.8580    1.1749 O   0  0  0  0  0  0  0  0  0  0  0  0
   -3.1083    2.3781   -2.0630 C   0  0  0  0  0  0  0  0  0  0  0  0
   -1.3031    0.7089   -2.5553 C   0  0  0  0  0  0  0  0  0  0  0  0
    3.6570   -0.1845    0.5442 C   0  0  0  0  0  0  0  0  0  0  0  0
    4.3162   -1.4043    0.6121 C   0  0  0  0  0  0  0  0  0  0  0  0
    4.0295    0.6540   -0.4826 C   0  0  0  0  0  0  0  0  0  0  0  0
    5.2930   -1.7891   -0.2794 C   0  0  0  0  0  0  0  0  0  0  0  0
    5.0083    0.2752   -1.3806 C   0  0  0  0  0  0  0  0  0  0  0  0
    5.6451   -0.9353   -1.2927 C   0  0  0  0  0  0  0  0  0  0  0  0
    0.0000    0.0000    0.0000 O   0  0  0  0  0  0  0  0  0  0  0  0
    0.0000    0.0000    0.0000 O   0  0  0  0  0  0  0  0  0  0  0  0
    0.0000    0.0000    0.0000 O   0  0  0  0  0  0  0  0  0  0  0  0
  3  2  1  0
  4  2  1  0
  5  3  1  0
  6  2  1  0
  3  7  1  1
  8  6  1  0
  5  9  1  1
  6 10  1  6
 11  9  1  0
 12  4  2  0
 13 10  2  0
 14 11  2  0
 15 11  1  0
 16 10  1  0
 17  8  1  0
 18  8  1  0
 19 15  1  0
 20 19  2  0
 21 19  1  0
 22 20  1  0
 23 21  2  0
 24 23  1  0
  7  8  1  0
  4  5  1  0
 24 22  2  0
 26 32  1  0
 27 30  1  0
 28 29  1  0
 29 25  1  0
 30 26  1  0
 31 25  1  0
 32 31  1  0
 33 27  2  0
 34 27  1  0
 35 28  2  0
 36 28  1  0
 37 33  1  0
 38 35  1  0
 39 36  2  0
 40 34  2  0
 41 37  2  0
 42 39  1  0
 42 38  2  0
 40 41  1  0
 44 43  1  0
 45 43  1  0
 46 44  1  0
 47 43  1  0
 44 48  1  6
 49 47  1  0
 46 50  1  6
 47 51  1  1
 52 50  1  0
 53 45  2  0
 54 51  2  0
 55 52  2  0
 56 52  1  0
 57 51  1  0
 58 49  1  0
 59 49  1  0
 60 56  1  0
 61 60  2  0
 62 60  1  0
 63 61  1  0
 64 62  2  0
 65 64  1  0
 48 49  1  0
 45 46  1  0
 65 63  2  0
M  END
