
     RDKit          3D

 17 18  0  0  0  0  0  0  0  0999 V2000
    1.0608   -1.6127   -0.4540 O   0  0  0  0  0  0  0  0  0  0  0  0
    2.3560   -1.1579   -0.2497 C   0  0  0  0  0  0  0  0  0  0  0  0
    1.4698    1.0488    0.3986 C   0  0  0  0  0  0  0  0  0  0  0  0
   -0.0473   -0.7691   -0.2430 C   0  0  0  0  0  0  0  0  0  0  0  0
    2.5129    0.2384    0.1949 C   0  0  0  0  0  0  0  0  0  0  0  0
    0.1231    0.5487    0.1776 C   0  0  0  0  0  0  0  0  0  0  0  0
    3.3376   -1.8705   -0.4257 O   0  0  0  0  0  0  0  0  0  0  0  0
   -1.3120   -1.3062   -0.4716 C   0  0  0  0  0  0  0  0  0  0  0  0
   -1.0063    1.3462    0.3732 C   0  0  0  0  0  0  0  0  0  0  0  0
   -2.4345   -0.5042   -0.2743 C   0  0  0  0  0  0  0  0  0  0  0  0
   -2.2822    0.8190    0.1471 C   0  0  0  0  0  0  0  0  0  0  0  0
    1.6085    2.0731    0.7258 H   0  0  0  0  0  0  0  0  0  0  0  0
    3.5324    0.5707    0.3477 H   0  0  0  0  0  0  0  0  0  0  0  0
   -1.4208   -2.3359   -0.7991 H   0  0  0  0  0  0  0  0  0  0  0  0
   -0.9091    2.3782    0.7008 H   0  0  0  0  0  0  0  0  0  0  0  0
   -3.4286   -0.9087   -0.4485 H   0  0  0  0  0  0  0  0  0  0  0  0
   -3.1604    1.4422    0.3001 H   0  0  0  0  0  0  0  0  0  0  0  0
  2  1  1  0
  3  6  1  0
  4  1  1  0
  5  2  1  0
  6  4  2  0
  7  2  2  0
  8  4  1  0
  9  6  1  0
 10  8  2  0
 11 10  1  0
  5  3  2  0
  9 11  2  0
  3 12  1  0
  5 13  1  0
  8 14  1  0
  9 15  1  0
 10 16  1  0
 11 17  1  0
M  END
$$$$
