
     RDKit          3D

 17 18  0  0  0  0  0  0  0  0999 V2000
    1.2847   -1.4952    0.2147 O   0  0  0  0  0  0  0  0  0  0  0  0
    2.4997   -0.8317    0.1159 C   0  0  0  0  0  0  0  0  0  0  0  0
    1.3011    1.2999   -0.1915 C   0  0  0  0  0  0  0  0  0  0  0  0
    0.0654   -0.7969    0.1156 C   0  0  0  0  0  0  0  0  0  0  0  0
    2.4512    0.6260   -0.0958 C   0  0  0  0  0  0  0  0  0  0  0  0
    0.0417    0.5821   -0.0847 C   0  0  0  0  0  0  0  0  0  0  0  0
    3.5748   -1.4146    0.1984 O   0  0  0  0  0  0  0  0  0  0  0  0
   -1.1073   -1.5403    0.2260 C   0  0  0  0  0  0  0  0  0  0  0  0
   -1.1919    1.2297   -0.1763 C   0  0  0  0  0  0  0  0  0  0  0  0
   -2.3349   -0.8870    0.1335 C   0  0  0  0  0  0  0  0  0  0  0  0
   -2.3773    0.4949   -0.0672 C   0  0  0  0  0  0  0  0  0  0  0  0
    1.2889    2.3728   -0.3473 H   0  0  0  0  0  0  0  0  0  0  0  0
    3.4113    1.1218   -0.1698 H   0  0  0  0  0  0  0  0  0  0  0  0
   -1.0648   -2.6142    0.3820 H   0  0  0  0  0  0  0  0  0  0  0  0
   -1.2463    2.3043   -0.3323 H   0  0  0  0  0  0  0  0  0  0  0  0
   -3.2593   -1.4531    0.2176 H   0  0  0  0  0  0  0  0  0  0  0  0
   -3.3370    1.0016   -0.1389 H   0  0  0  0  0  0  0  0  0  0  0  0
  2  1  1  0
  3  6  1  0
  4  1  1  0
  5  2  1  0
  6  4  2  0
  7  2  2  0
  8  4  1  0
  9  6  1  0
 10  8  2  0
 11 10  1  0
  5  3  2  0
  9 11  2  0
  3 12  1  0
  5 13  1  0
  8 14  1  0
  9 15  1  0
 10 16  1  0
 11 17  1  0
M  END
$$$$
