
     RDKit          3D

 17 18  0  0  0  0  0  0  0  0999 V2000
   -0.9795    1.7104    0.2173 O   0  0  0  0  0  0  0  0  0  0  0  0
   -2.2984    1.2849    0.1418 C   0  0  0  0  0  0  0  0  0  0  0  0
   -1.5237   -1.0353   -0.1605 C   0  0  0  0  0  0  0  0  0  0  0  0
    0.0863    0.7959    0.1085 C   0  0  0  0  0  0  0  0  0  0  0  0
   -2.5262   -0.1577   -0.0559 C   0  0  0  0  0  0  0  0  0  0  0  0
   -0.1509   -0.5647   -0.0782 C   0  0  0  0  0  0  0  0  0  0  0  0
   -3.2444    2.0590    0.2332 O   0  0  0  0  0  0  0  0  0  0  0  0
    1.3788    1.3079    0.1953 C   0  0  0  0  0  0  0  0  0  0  0  0
    0.9386   -1.4320   -0.1803 C   0  0  0  0  0  0  0  0  0  0  0  0
    2.4612    0.4362    0.0926 C   0  0  0  0  0  0  0  0  0  0  0  0
    2.2418   -0.9308   -0.0948 C   0  0  0  0  0  0  0  0  0  0  0  0
   -1.7143   -2.0927   -0.3058 H   0  0  0  0  0  0  0  0  0  0  0  0
   -3.5630   -0.4660   -0.1117 H   0  0  0  0  0  0  0  0  0  0  0  0
    1.5398    2.3720    0.3410 H   0  0  0  0  0  0  0  0  0  0  0  0
    0.7890   -2.4989   -0.3262 H   0  0  0  0  0  0  0  0  0  0  0  0
    3.4763    0.8202    0.1583 H   0  0  0  0  0  0  0  0  0  0  0  0
    3.0888   -1.6084   -0.1746 H   0  0  0  0  0  0  0  0  0  0  0  0
  2  1  1  0
  3  6  1  0
  4  1  1  0
  5  2  1  0
  6  4  2  0
  7  2  2  0
  8  4  1  0
  9  6  1  0
 10  8  2  0
 11 10  1  0
  5  3  2  0
  9 11  2  0
  3 12  1  0
  5 13  1  0
  8 14  1  0
  9 15  1  0
 10 16  1  0
 11 17  1  0
M  END
$$$$
