
     RDKit          3D

 43 46  0  0  0  0  0  0  0  0999 V2000
   -0.5088   -0.1222    0.3663 C   0  0  0  0  0  0  0  0  0  0  0  0
   -1.0261    1.1669    0.8930 C   0  0  0  0  0  0  0  0  0  0  0  0
   -1.5007   -1.1448   -0.0551 C   0  0  0  0  0  0  0  0  0  0  0  0
    0.8182   -0.3070    0.1278 C   0  0  0  0  0  0  0  0  0  0  0  0
   -2.1816    1.6528   -1.3145 C   0  0  0  0  0  0  0  0  0  0  0  0
   -2.4421    0.4300   -1.8103 C   0  0  0  0  0  0  0  0  0  0  0  0
    3.7574   -0.7141   -0.5176 N   0  0  0  0  0  0  0  0  0  0  0  0
   -2.4243   -0.8530   -1.0794 C   0  0  0  0  0  0  0  0  0  0  0  0
   -1.8289    1.9904    0.0784 C   0  0  0  0  0  0  0  0  0  0  0  0
    1.8945    0.7339    0.4176 C   0  0  0  0  0  0  0  0  0  0  0  0
    1.3907   -1.5512   -0.5462 C   0  0  0  0  0  0  0  0  0  0  0  0
    3.2793    0.0935    0.6174 C   0  0  0  0  0  0  0  0  0  0  0  0
    2.6557   -1.2209   -1.3551 C   0  0  0  0  0  0  0  0  0  0  0  0
   -0.7802    1.5343    2.2260 C   0  0  0  0  0  0  0  0  0  0  0  0
   -1.5461   -2.3886    0.5957 C   0  0  0  0  0  0  0  0  0  0  0  0
    4.7291    0.0101   -1.3328 C   0  0  0  0  0  0  0  0  0  0  0  0
   -3.3412   -1.8435   -1.4649 C   0  0  0  0  0  0  0  0  0  0  0  0
   -2.2989    3.2070    0.5981 C   0  0  0  0  0  0  0  0  0  0  0  0
   -2.4739   -3.3550    0.2094 C   0  0  0  0  0  0  0  0  0  0  0  0
   -1.2686    2.7385    2.7318 C   0  0  0  0  0  0  0  0  0  0  0  0
   -3.3670   -3.0845   -0.8236 C   0  0  0  0  0  0  0  0  0  0  0  0
   -2.0196    3.5788    1.9152 C   0  0  0  0  0  0  0  0  0  0  0  0
   -2.2609    2.5040   -1.9875 H   0  0  0  0  0  0  0  0  0  0  0  0
   -2.7177    0.3546   -2.8603 H   0  0  0  0  0  0  0  0  0  0  0  0
    1.6729    1.3105    1.3188 H   0  0  0  0  0  0  0  0  0  0  0  0
    1.9392    1.4407   -0.4207 H   0  0  0  0  0  0  0  0  0  0  0  0
    1.6298   -2.2984    0.2210 H   0  0  0  0  0  0  0  0  0  0  0  0
    0.6709   -2.0031   -1.2369 H   0  0  0  0  0  0  0  0  0  0  0  0
    4.0059    0.8709    0.8860 H   0  0  0  0  0  0  0  0  0  0  0  0
    3.2303   -0.5699    1.4913 H   0  0  0  0  0  0  0  0  0  0  0  0
    2.9970   -2.1272   -1.8694 H   0  0  0  0  0  0  0  0  0  0  0  0
    2.3877   -0.4928   -2.1337 H   0  0  0  0  0  0  0  0  0  0  0  0
   -0.2041    0.8781    2.8742 H   0  0  0  0  0  0  0  0  0  0  0  0
   -0.8544   -2.6054    1.4062 H   0  0  0  0  0  0  0  0  0  0  0  0
    5.6044    0.2851   -0.7339 H   0  0  0  0  0  0  0  0  0  0  0  0
    4.3059    0.9238   -1.7654 H   0  0  0  0  0  0  0  0  0  0  0  0
    5.0954   -0.6223   -2.1493 H   0  0  0  0  0  0  0  0  0  0  0  0
   -4.0557   -1.6508   -2.2621 H   0  0  0  0  0  0  0  0  0  0  0  0
   -2.9070    3.8684   -0.0151 H   0  0  0  0  0  0  0  0  0  0  0  0
   -2.4992   -4.3165    0.7152 H   0  0  0  0  0  0  0  0  0  0  0  0
   -1.0655    3.0173    3.7623 H   0  0  0  0  0  0  0  0  0  0  0  0
   -4.0903   -3.8367   -1.1277 H   0  0  0  0  0  0  0  0  0  0  0  0
   -2.4016    4.5184    2.3060 H   0  0  0  0  0  0  0  0  0  0  0  0
  2  1  1  0
  3  1  1  0
  4  1  2  3
  5  9  1  0
  6  8  1  0
  7 13  1  0
  8  3  2  0
  9  2  2  0
 10  4  1  0
 11  4  1  0
 12 10  1  0
 13 11  1  0
 14  2  1  0
 15  3  1  0
 16  7  1  0
 17  8  1  0
 18  9  1  0
 19 15  2  0
 20 14  2  0
 21 19  1  0
 22 20  1  0
  7 12  1  0
  6  5  2  0
 21 17  2  0
 22 18  2  0
  5 23  1  0
  6 24  1  0
 10 25  1  0
 10 26  1  0
 11 27  1  0
 11 28  1  0
 12 29  1  0
 12 30  1  0
 13 31  1  0
 13 32  1  0
 14 33  1  0
 15 34  1  0
 16 35  1  0
 16 36  1  0
 16 37  1  0
 17 38  1  0
 18 39  1  0
 19 40  1  0
 20 41  1  0
 21 42  1  0
 22 43  1  0
M  END
$$$$
