
     RDKit          3D

 43 46  0  0  0  0  0  0  0  0999 V2000
   -0.4826    0.0938   -0.0287 C   0  0  0  0  0  0  0  0  0  0  0  0
   -0.9821    1.4863    0.1003 C   0  0  0  0  0  0  0  0  0  0  0  0
   -1.4067   -0.9149   -0.6063 C   0  0  0  0  0  0  0  0  0  0  0  0
    0.7164   -0.2727    0.4962 C   0  0  0  0  0  0  0  0  0  0  0  0
   -2.8260    0.7203    1.6674 C   0  0  0  0  0  0  0  0  0  0  0  0
   -3.0510   -0.5521    1.2930 C   0  0  0  0  0  0  0  0  0  0  0  0
    3.6159   -0.7952    0.5292 N   0  0  0  0  0  0  0  0  0  0  0  0
   -2.6316   -1.1958    0.0322 C   0  0  0  0  0  0  0  0  0  0  0  0
   -2.1090    1.7593    0.9018 C   0  0  0  0  0  0  0  0  0  0  0  0
    1.6956    0.6586    1.1970 C   0  0  0  0  0  0  0  0  0  0  0  0
    1.2809   -1.6864    0.5069 C   0  0  0  0  0  0  0  0  0  0  0  0
    3.0827    0.5802    0.5366 C   0  0  0  0  0  0  0  0  0  0  0  0
    2.6766   -1.7158   -0.1390 C   0  0  0  0  0  0  0  0  0  0  0  0
   -0.3735    2.5226   -0.6269 C   0  0  0  0  0  0  0  0  0  0  0  0
   -1.0924   -1.5424   -1.8231 C   0  0  0  0  0  0  0  0  0  0  0  0
    4.9265   -0.8372   -0.1160 C   0  0  0  0  0  0  0  0  0  0  0  0
   -3.4833   -2.1585   -0.5316 C   0  0  0  0  0  0  0  0  0  0  0  0
   -2.5559    3.0853    1.0116 C   0  0  0  0  0  0  0  0  0  0  0  0
   -1.9581   -2.4844   -2.3775 C   0  0  0  0  0  0  0  0  0  0  0  0
   -0.8411    3.8318   -0.5188 C   0  0  0  0  0  0  0  0  0  0  0  0
   -3.1488   -2.7979   -1.7279 C   0  0  0  0  0  0  0  0  0  0  0  0
   -1.9265    4.1139    0.3061 C   0  0  0  0  0  0  0  0  0  0  0  0
   -3.2251    1.0490    2.6247 H   0  0  0  0  0  0  0  0  0  0  0  0
   -3.6209   -1.1892    1.9661 H   0  0  0  0  0  0  0  0  0  0  0  0
    1.7727    0.3564    2.2501 H   0  0  0  0  0  0  0  0  0  0  0  0
    1.3724    1.7019    1.2111 H   0  0  0  0  0  0  0  0  0  0  0  0
    0.6443   -2.4148   -0.0003 H   0  0  0  0  0  0  0  0  0  0  0  0
    1.3512   -2.0268    1.5488 H   0  0  0  0  0  0  0  0  0  0  0  0
    3.0231    0.9782   -0.4856 H   0  0  0  0  0  0  0  0  0  0  0  0
    3.7644    1.2292    1.0998 H   0  0  0  0  0  0  0  0  0  0  0  0
    3.0624   -2.7401   -0.0683 H   0  0  0  0  0  0  0  0  0  0  0  0
    2.5896   -1.4728   -1.2069 H   0  0  0  0  0  0  0  0  0  0  0  0
    0.4701    2.3084   -1.2783 H   0  0  0  0  0  0  0  0  0  0  0  0
   -0.1676   -1.2972   -2.3394 H   0  0  0  0  0  0  0  0  0  0  0  0
    5.6351   -0.1883    0.4106 H   0  0  0  0  0  0  0  0  0  0  0  0
    4.8832   -0.5209   -1.1645 H   0  0  0  0  0  0  0  0  0  0  0  0
    5.3411   -1.8506   -0.0785 H   0  0  0  0  0  0  0  0  0  0  0  0
   -4.4270   -2.4062   -0.0507 H   0  0  0  0  0  0  0  0  0  0  0  0
   -3.4132    3.3262    1.6361 H   0  0  0  0  0  0  0  0  0  0  0  0
   -1.7041   -2.9708   -3.3154 H   0  0  0  0  0  0  0  0  0  0  0  0
   -0.3601    4.6290   -1.0789 H   0  0  0  0  0  0  0  0  0  0  0  0
   -3.8251   -3.5329   -2.1567 H   0  0  0  0  0  0  0  0  0  0  0  0
   -2.2925    5.1336    0.3937 H   0  0  0  0  0  0  0  0  0  0  0  0
  2  1  1  0
  3  1  1  0
  4  1  2  3
  5  9  1  0
  6  8  1  0
  7 13  1  0
  8  3  2  0
  9  2  2  0
 10  4  1  0
 11  4  1  0
 12 10  1  0
 13 11  1  0
 14  2  1  0
 15  3  1  0
 16  7  1  0
 17  8  1  0
 18  9  1  0
 19 15  2  0
 20 14  2  0
 21 19  1  0
 22 20  1  0
  7 12  1  0
  6  5  2  0
 21 17  2  0
 22 18  2  0
  5 23  1  0
  6 24  1  0
 10 25  1  0
 10 26  1  0
 11 27  1  0
 11 28  1  0
 12 29  1  0
 12 30  1  0
 13 31  1  0
 13 32  1  0
 14 33  1  0
 15 34  1  0
 16 35  1  0
 16 36  1  0
 16 37  1  0
 17 38  1  0
 18 39  1  0
 19 40  1  0
 20 41  1  0
 21 42  1  0
 22 43  1  0
M  END
$$$$
