
     RDKit          3D

 43 46  0  0  0  0  0  0  0  0999 V2000
   -0.5229    0.0400   -0.3687 C   0  0  0  0  0  0  0  0  0  0  0  0
   -1.4261    1.1453    0.0428 C   0  0  0  0  0  0  0  0  0  0  0  0
   -1.1446   -1.2511   -0.7609 C   0  0  0  0  0  0  0  0  0  0  0  0
    0.8279    0.1467   -0.2426 C   0  0  0  0  0  0  0  0  0  0  0  0
   -2.3088   -0.2409    1.9777 C   0  0  0  0  0  0  0  0  0  0  0  0
   -2.1698   -1.5077    1.5477 C   0  0  0  0  0  0  0  0  0  0  0  0
    3.8375    0.3105    0.1268 N   0  0  0  0  0  0  0  0  0  0  0  0
   -1.9408   -1.9606    0.1610 C   0  0  0  0  0  0  0  0  0  0  0  0
   -2.2747    0.9851    1.1566 C   0  0  0  0  0  0  0  0  0  0  0  0
    1.7954   -1.0033   -0.5107 C   0  0  0  0  0  0  0  0  0  0  0  0
    1.5458    1.3924    0.2657 C   0  0  0  0  0  0  0  0  0  0  0  0
    3.0449   -0.9060    0.3796 C   0  0  0  0  0  0  0  0  0  0  0  0
    2.9993    1.4665   -0.2339 C   0  0  0  0  0  0  0  0  0  0  0  0
   -1.4922    2.3234   -0.7186 C   0  0  0  0  0  0  0  0  0  0  0  0
   -0.9734   -1.7451   -2.0645 C   0  0  0  0  0  0  0  0  0  0  0  0
    4.7080    0.6001    1.2633 C   0  0  0  0  0  0  0  0  0  0  0  0
   -2.5045   -3.1840   -0.2340 C   0  0  0  0  0  0  0  0  0  0  0  0
   -3.1133    2.0480    1.5287 C   0  0  0  0  0  0  0  0  0  0  0  0
   -1.5535   -2.9549   -2.4438 C   0  0  0  0  0  0  0  0  0  0  0  0
   -2.3430    3.3631   -0.3449 C   0  0  0  0  0  0  0  0  0  0  0  0
   -2.3139   -3.6762   -1.5276 C   0  0  0  0  0  0  0  0  0  0  0  0
   -3.1462    3.2290    0.7837 C   0  0  0  0  0  0  0  0  0  0  0  0
   -2.4959   -0.0791    3.0372 H   0  0  0  0  0  0  0  0  0  0  0  0
   -2.2502   -2.3063    2.2824 H   0  0  0  0  0  0  0  0  0  0  0  0
    1.3305   -1.9753   -0.3149 H   0  0  0  0  0  0  0  0  0  0  0  0
    2.0939   -0.9839   -1.5664 H   0  0  0  0  0  0  0  0  0  0  0  0
    1.5395    1.3824    1.3631 H   0  0  0  0  0  0  0  0  0  0  0  0
    1.0475    2.3104   -0.0549 H   0  0  0  0  0  0  0  0  0  0  0  0
    2.7254   -0.9548    1.4302 H   0  0  0  0  0  0  0  0  0  0  0  0
    3.6810   -1.7806    0.1984 H   0  0  0  0  0  0  0  0  0  0  0  0
    2.9850    1.5288   -1.3304 H   0  0  0  0  0  0  0  0  0  0  0  0
    3.4536    2.4072    0.1024 H   0  0  0  0  0  0  0  0  0  0  0  0
   -0.8766    2.4318   -1.6085 H   0  0  0  0  0  0  0  0  0  0  0  0
   -0.3842   -1.1851   -2.7868 H   0  0  0  0  0  0  0  0  0  0  0  0
    4.1394    0.8573    2.1641 H   0  0  0  0  0  0  0  0  0  0  0  0
    5.3805    1.4331    1.0300 H   0  0  0  0  0  0  0  0  0  0  0  0
    5.3455   -0.2618    1.4904 H   0  0  0  0  0  0  0  0  0  0  0  0
   -3.1113   -3.7595    0.4614 H   0  0  0  0  0  0  0  0  0  0  0  0
   -3.7662    1.9561    2.3938 H   0  0  0  0  0  0  0  0  0  0  0  0
   -1.4122   -3.3322   -3.4530 H   0  0  0  0  0  0  0  0  0  0  0  0
   -2.3804    4.2740   -0.9363 H   0  0  0  0  0  0  0  0  0  0  0  0
   -2.7659   -4.6204   -1.8202 H   0  0  0  0  0  0  0  0  0  0  0  0
   -3.8102    4.0375    1.0782 H   0  0  0  0  0  0  0  0  0  0  0  0
  2  1  1  0
  3  1  1  0
  4  1  2  3
  5  9  1  0
  6  8  1  0
  7 13  1  0
  8  3  2  0
  9  2  2  0
 10  4  1  0
 11  4  1  0
 12 10  1  0
 13 11  1  0
 14  2  1  0
 15  3  1  0
 16  7  1  0
 17  8  1  0
 18  9  1  0
 19 15  2  0
 20 14  2  0
 21 19  1  0
 22 20  1  0
  7 12  1  0
  6  5  2  0
 21 17  2  0
 22 18  2  0
  5 23  1  0
  6 24  1  0
 10 25  1  0
 10 26  1  0
 11 27  1  0
 11 28  1  0
 12 29  1  0
 12 30  1  0
 13 31  1  0
 13 32  1  0
 14 33  1  0
 15 34  1  0
 16 35  1  0
 16 36  1  0
 16 37  1  0
 17 38  1  0
 18 39  1  0
 19 40  1  0
 20 41  1  0
 21 42  1  0
 22 43  1  0
M  END
$$$$
