
     RDKit          3D

 22 25  0  0  0  0  0  0  0  0999 V2000
   -0.1452    0.0058   -0.1063 C   0  0  0  0  0  0  0  0  0  0  0  0
   -1.2082   -0.9759   -0.0884 C   0  0  0  0  0  0  0  0  0  0  0  0
   -0.3043    1.4689   -0.1557 C   0  0  0  0  0  0  0  0  0  0  0  0
    1.1163   -0.3947   -0.0771 C   0  0  0  0  0  0  0  0  0  0  0  0
   -3.2698    0.4920   -0.5310 C   0  0  0  0  0  0  0  0  0  0  0  0
   -2.7813    1.7129   -0.5572 C   0  0  0  0  0  0  0  0  0  0  0  0
    3.8103   -1.2399   -0.1989 N   0  0  0  0  0  0  0  0  0  0  0  0
   -1.4343    2.2316   -0.3494 C   0  0  0  0  0  0  0  0  0  0  0  0
   -2.5709   -0.7721   -0.2724 C   0  0  0  0  0  0  0  0  0  0  0  0
    2.2615    0.5627   -0.0932 C   0  0  0  0  0  0  0  0  0  0  0  0
    1.4125   -1.8292   -0.0269 C   0  0  0  0  0  0  0  0  0  0  0  0
    3.4387   -0.1070    0.5895 C   0  0  0  0  0  0  0  0  0  0  0  0
    2.7936   -2.2139   -0.4169 C   0  0  0  0  0  0  0  0  0  0  0  0
   -0.6974   -2.2345    0.1480 C   0  0  0  0  0  0  0  0  0  0  0  0
    0.9018    2.0721    0.0281 C   0  0  0  0  0  0  0  0  0  0  0  0
    5.0870   -1.7948    0.2309 C   0  0  0  0  0  0  0  0  0  0  0  0
   -1.3476    3.6050   -0.3579 C   0  0  0  0  0  0  0  0  0  0  0  0
   -3.4114   -1.8660   -0.2132 C   0  0  0  0  0  0  0  0  0  0  0  0
    0.9756    3.4459    0.0176 C   0  0  0  0  0  0  0  0  0  0  0  0
   -1.5754   -3.2878    0.1972 C   0  0  0  0  0  0  0  0  0  0  0  0
   -0.1387    4.2436   -0.1742 C   0  0  0  0  0  0  0  0  0  0  0  0
   -2.9127   -3.1246    0.0218 C   0  0  0  0  0  0  0  0  0  0  0  0
  2  1  1  0
  3  1  1  0
  4  1  2  0
  5  9  1  0
  6  8  1  0
  7 13  1  0
  8  3  2  0
  9  2  2  0
 10  4  1  0
 11  4  1  0
 12 10  1  0
 13 11  1  0
 14  2  1  0
 15  3  1  0
 16  7  1  0
 17  8  1  0
 18  9  1  0
 19 15  2  0
 20 14  2  0
 21 19  1  0
 22 20  1  0
  7 12  1  0
  6  5  2  0
 21 17  2  0
 22 18  2  0
M  END
