
     RDKit          3D

 53 52  0  0  0  0  0  0  0  0999 V2000
    0.7725   -1.2130   -0.5195 C   0  0  0  0  0  0  0  0  0  0  0  0
    1.9010    0.8295   -1.4337 N   0  0  0  0  0  0  0  0  0  0  0  0
   -0.5663   -0.6006   -0.1715 C   0  0  0  0  0  0  0  0  0  0  0  0
    1.9922   -0.2640   -0.4579 C   0  0  1  0  0  0  0  0  0  0  0  0
   -1.3376    0.0276   -1.1593 C   0  0  0  0  0  0  0  0  0  0  0  0
   -1.0574   -0.6513    1.1403 C   0  0  0  0  0  0  0  0  0  0  0  0
    2.2359    0.3028    0.9412 C   0  0  0  0  0  0  0  0  0  0  0  0
   -2.5702    0.5993   -0.8407 C   0  0  0  0  0  0  0  0  0  0  0  0
   -2.2906   -0.0791    1.4577 C   0  0  0  0  0  0  0  0  0  0  0  0
   -3.0459    0.5467    0.4678 C   0  0  0  0  0  0  0  0  0  0  0  0
    0.0632    0.2919    0.3437 S   0  0  0  0  0  0  0  0  0  0  0  0
   -0.4664    1.6248    0.2073 O   0  0  0  0  0  0  0  0  0  0  0  0
    0.7816   -0.1718    1.5032 O   0  0  0  0  0  0  0  0  0  0  0  0
    1.0009   -0.0116   -0.9220 O   0  0  0  0  0  0  0  0  0  0  0  0
   -1.1584   -0.7116    0.0710 O   0  0  0  0  0  0  0  0  0  0  0  0
   -0.7965   -0.3086   -0.7094 C   0  0  0  0  0  0  0  0  0  0  0  0
   -1.7927    1.4141    0.7964 N   0  0  0  0  0  0  0  0  0  0  0  0
    0.6920   -0.1553   -0.4924 C   0  0  0  0  0  0  0  0  0  0  0  0
   -1.6395   -0.0273    0.5541 C   0  0  1  0  0  0  0  0  0  0  0  0
    1.2898    1.1114   -0.5094 C   0  0  0  0  0  0  0  0  0  0  0  0
    1.4957   -1.2802   -0.2589 C   0  0  0  0  0  0  0  0  0  0  0  0
   -3.0292   -0.6524    0.4169 C   0  0  0  0  0  0  0  0  0  0  0  0
    2.6636    1.2508   -0.3055 C   0  0  0  0  0  0  0  0  0  0  0  0
    2.8699   -1.1396   -0.0561 C   0  0  0  0  0  0  0  0  0  0  0  0
    3.4537    0.1254   -0.0806 C   0  0  0  0  0  0  0  0  0  0  0  0
    0.9524   -2.0675    0.1468 H   0  0  0  0  0  0  0  0  0  0  0  0
    0.7053   -1.6490   -1.5259 H   0  0  0  0  0  0  0  0  0  0  0  0
    1.0918    1.4089   -1.2031 H   0  0  0  0  0  0  0  0  0  0  0  0
    2.7111    1.4406   -1.3366 H   0  0  0  0  0  0  0  0  0  0  0  0
    2.8723   -0.8599   -0.7296 H   0  0  0  0  0  0  0  0  0  0  0  0
   -0.9776    0.0734   -2.1856 H   0  0  0  0  0  0  0  0  0  0  0  0
   -0.4821   -1.1377    1.9245 H   0  0  0  0  0  0  0  0  0  0  0  0
    3.1824    0.8544    0.9762 H   0  0  0  0  0  0  0  0  0  0  0  0
    2.2970   -0.5028    1.6806 H   0  0  0  0  0  0  0  0  0  0  0  0
    1.4425    0.9914    1.2504 H   0  0  0  0  0  0  0  0  0  0  0  0
   -3.1593    1.0834   -1.6150 H   0  0  0  0  0  0  0  0  0  0  0  0
   -2.6628   -0.1235    2.4777 H   0  0  0  0  0  0  0  0  0  0  0  0
   -4.0065    0.9904    0.7153 H   0  0  0  0  0  0  0  0  0  0  0  0
    1.5674   -0.7750   -0.6853 H   0  0  0  0  0  0  0  0  0  0  0  0
   -1.7882   -0.2466   -0.5180 H   0  0  0  0  0  0  0  0  0  0  0  0
   -1.1108    0.3383   -1.5397 H   0  0  0  0  0  0  0  0  0  0  0  0
   -0.9881   -1.3327   -1.0573 H   0  0  0  0  0  0  0  0  0  0  0  0
   -2.3417    1.5603    1.6426 H   0  0  0  0  0  0  0  0  0  0  0  0
   -2.3216    1.8391    0.0362 H   0  0  0  0  0  0  0  0  0  0  0  0
   -1.1484   -0.4706    1.4288 H   0  0  0  0  0  0  0  0  0  0  0  0
    0.6821    1.9990   -0.6713 H   0  0  0  0  0  0  0  0  0  0  0  0
    1.0567   -2.2746   -0.2336 H   0  0  0  0  0  0  0  0  0  0  0  0
   -3.5682   -0.2487   -0.4477 H   0  0  0  0  0  0  0  0  0  0  0  0
   -2.9537   -1.7378    0.2902 H   0  0  0  0  0  0  0  0  0  0  0  0
   -3.6348   -0.4675    1.3112 H   0  0  0  0  0  0  0  0  0  0  0  0
    3.1144    2.2394   -0.3173 H   0  0  0  0  0  0  0  0  0  0  0  0
    3.4846   -2.0176    0.1230 H   0  0  0  0  0  0  0  0  0  0  0  0
    4.5226    0.2351    0.0798 H   0  0  0  0  0  0  0  0  0  0  0  0
  4  2  1  0
  3  1  1  0
  4  1  1  0
  5  3  2  0
  6  3  1  0
  4  7  1  0
  8  5  1  0
  9  6  2  0
 10  8  2  0
  9 10  1  0
 12 11  2  0
 13 11  2  0
 14 11  1  0
 15 11  1  0
 19 17  1  0
 18 16  1  0
 19 16  1  0
 20 18  2  0
 21 18  1  0
 19 22  1  0
 23 20  1  0
 24 21  2  0
 25 23  2  0
 24 25  1  0
  1 26  1  0
  1 27  1  0
  2 28  1  0
  2 29  1  0
  4 30  1  6
  5 31  1  0
  6 32  1  0
  7 33  1  0
  7 34  1  0
  7 35  1  0
  8 36  1  0
  9 37  1  0
 10 38  1  0
 14 39  1  0
 15 40  1  0
 16 41  1  0
 16 42  1  0
 17 43  1  0
 17 44  1  0
 19 45  1  1
 20 46  1  0
 21 47  1  0
 22 48  1  0
 22 49  1  0
 22 50  1  0
 23 51  1  0
 24 52  1  0
 25 53  1  0
M  END
$$$$
