
     RDKit          3D

 53 52  0  0  0  0  0  0  0  0999 V2000
   -0.7189   -0.2124   -0.8191 C   0  0  0  0  0  0  0  0  0  0  0  0
   -1.9402    1.1405    0.8854 N   0  0  0  0  0  0  0  0  0  0  0  0
    0.7355   -0.0223   -0.4517 C   0  0  0  0  0  0  0  0  0  0  0  0
   -1.6700   -0.2194    0.3980 C   0  0  1  0  0  0  0  0  0  0  0  0
    1.5956   -1.1258   -0.3605 C   0  0  0  0  0  0  0  0  0  0  0  0
    1.2440    1.2555   -0.1855 C   0  0  0  0  0  0  0  0  0  0  0  0
   -2.9992   -0.8824    0.0311 C   0  0  0  0  0  0  0  0  0  0  0  0
    2.9381   -0.9518   -0.0191 C   0  0  0  0  0  0  0  0  0  0  0  0
    2.5862    1.4282    0.1569 C   0  0  0  0  0  0  0  0  0  0  0  0
    3.4333    0.3250    0.2384 C   0  0  0  0  0  0  0  0  0  0  0  0
    0.0288   -0.4190    0.1759 S   0  0  0  0  0  0  0  0  0  0  0  0
   -0.4428   -0.6230    1.5219 O   0  0  0  0  0  0  0  0  0  0  0  0
    0.5863   -1.4625   -0.6463 O   0  0  0  0  0  0  0  0  0  0  0  0
    1.1060    0.7696    0.1922 O   0  0  0  0  0  0  0  0  0  0  0  0
   -1.1774    0.2681   -0.6280 O   0  0  0  0  0  0  0  0  0  0  0  0
   -0.6552    0.3102   -0.9606 C   0  0  0  0  0  0  0  0  0  0  0  0
   -1.8561    0.7195    1.1856 N   0  0  0  0  0  0  0  0  0  0  0  0
    0.7325    0.0972   -0.3976 C   0  0  0  0  0  0  0  0  0  0  0  0
   -1.7808   -0.1379   -0.0042 C   0  0  1  0  0  0  0  0  0  0  0  0
    1.3156   -1.1773   -0.4041 C   0  0  0  0  0  0  0  0  0  0  0  0
    1.4474    1.1691    0.1538 C   0  0  0  0  0  0  0  0  0  0  0  0
   -3.1319   -0.0982   -0.7164 C   0  0  0  0  0  0  0  0  0  0  0  0
    2.5907   -1.3740    0.1286 C   0  0  0  0  0  0  0  0  0  0  0  0
    2.7219    0.9703    0.6863 C   0  0  0  0  0  0  0  0  0  0  0  0
    3.2932   -0.3007    0.6735 C   0  0  0  0  0  0  0  0  0  0  0  0
   -0.8132   -1.1617   -1.3636 H   0  0  0  0  0  0  0  0  0  0  0  0
   -1.0150    0.5610   -1.5408 H   0  0  0  0  0  0  0  0  0  0  0  0
   -2.4398    1.6710    0.1733 H   0  0  0  0  0  0  0  0  0  0  0  0
   -2.5589    1.0952    1.6941 H   0  0  0  0  0  0  0  0  0  0  0  0
   -1.2151   -0.7914    1.2157 H   0  0  0  0  0  0  0  0  0  0  0  0
    1.2256   -2.1295   -0.5553 H   0  0  0  0  0  0  0  0  0  0  0  0
    0.5901    2.1235   -0.2332 H   0  0  0  0  0  0  0  0  0  0  0  0
   -3.4995   -0.3541   -0.7884 H   0  0  0  0  0  0  0  0  0  0  0  0
   -3.6806   -0.9013    0.8890 H   0  0  0  0  0  0  0  0  0  0  0  0
   -2.8396   -1.9192   -0.2842 H   0  0  0  0  0  0  0  0  0  0  0  0
    3.5971   -1.8132    0.0479 H   0  0  0  0  0  0  0  0  0  0  0  0
    2.9672    2.4243    0.3648 H   0  0  0  0  0  0  0  0  0  0  0  0
    4.4774    0.4603    0.5067 H   0  0  0  0  0  0  0  0  0  0  0  0
    1.6168    0.7080   -0.6414 H   0  0  0  0  0  0  0  0  0  0  0  0
   -1.7178    0.7587    0.0256 H   0  0  0  0  0  0  0  0  0  0  0  0
   -0.7869    1.3655   -1.2351 H   0  0  0  0  0  0  0  0  0  0  0  0
   -0.7269   -0.2479   -1.9039 H   0  0  0  0  0  0  0  0  0  0  0  0
   -2.5489    0.3438    1.8318 H   0  0  0  0  0  0  0  0  0  0  0  0
   -0.9617    0.6770    1.6774 H   0  0  0  0  0  0  0  0  0  0  0  0
   -1.5945   -1.1673    0.3257 H   0  0  0  0  0  0  0  0  0  0  0  0
    0.7802   -2.0244   -0.8266 H   0  0  0  0  0  0  0  0  0  0  0  0
    1.0105    2.1655    0.1741 H   0  0  0  0  0  0  0  0  0  0  0  0
   -3.9371   -0.4353   -0.0540 H   0  0  0  0  0  0  0  0  0  0  0  0
   -3.1270   -0.7577   -1.5909 H   0  0  0  0  0  0  0  0  0  0  0  0
   -3.3764    0.9137   -1.0590 H   0  0  0  0  0  0  0  0  0  0  0  0
    3.0367   -2.3650    0.1174 H   0  0  0  0  0  0  0  0  0  0  0  0
    3.2686    1.8082    1.1109 H   0  0  0  0  0  0  0  0  0  0  0  0
    4.2863   -0.4543    1.0871 H   0  0  0  0  0  0  0  0  0  0  0  0
  4  2  1  0
  3  1  1  0
  4  1  1  0
  5  3  2  0
  6  3  1  0
  4  7  1  0
  8  5  1  0
  9  6  2  0
 10  8  2  0
  9 10  1  0
 12 11  2  0
 13 11  2  0
 14 11  1  0
 15 11  1  0
 19 17  1  0
 18 16  1  0
 19 16  1  0
 20 18  2  0
 21 18  1  0
 19 22  1  0
 23 20  1  0
 24 21  2  0
 25 23  2  0
 24 25  1  0
  1 26  1  0
  1 27  1  0
  2 28  1  0
  2 29  1  0
  4 30  1  1
  5 31  1  0
  6 32  1  0
  7 33  1  0
  7 34  1  0
  7 35  1  0
  8 36  1  0
  9 37  1  0
 10 38  1  0
 14 39  1  0
 15 40  1  0
 16 41  1  0
 16 42  1  0
 17 43  1  0
 17 44  1  0
 19 45  1  1
 20 46  1  0
 21 47  1  0
 22 48  1  0
 22 49  1  0
 22 50  1  0
 23 51  1  0
 24 52  1  0
 25 53  1  0
M  END
$$$$
