
     RDKit          3D

 95100  0  0  0  0  0  0  0  0999 V2000
   -0.0020    0.3979    0.0000 O   0  0  0  0  0  0  0  0  0  0  0  0
   -5.6396    1.2884   -0.6734 N   0  0  0  0  0  0  0  0  0  0  0  0
   -4.4352    1.7596   -1.1005 C   0  0  0  0  0  0  0  0  0  0  0  0
   -3.1826    1.1848   -0.9956 C   0  0  0  0  0  0  0  0  0  0  0  0
   -3.1275   -0.0651   -0.3479 N   0  0  0  0  0  0  0  0  0  0  0  0
   -4.3245   -0.6174    0.0585 C   0  0  0  0  0  0  0  0  0  0  0  0
   -5.5697    0.1070   -0.1081 C   0  0  0  0  0  0  0  0  0  0  0  0
   -2.2444    2.0165   -1.6258 C   0  0  0  0  0  0  0  0  0  0  0  0
   -2.9519    3.1142   -2.0821 C   0  0  0  0  0  0  0  0  0  0  0  0
   -4.2791    2.9496   -1.7535 N   0  0  0  0  0  0  0  0  0  0  0  0
   -4.1736   -1.8306    0.5347 N   0  0  0  0  0  0  0  0  0  0  0  0
   -2.8217   -2.0594    0.4529 C   0  0  0  0  0  0  0  0  0  0  0  0
   -2.1209   -0.9551   -0.0146 C   0  0  0  0  0  0  0  0  0  0  0  0
   -0.6681   -0.6892   -0.2371 C   0  0  2  0  0  0  0  0  0  0  0  0
    0.3552   -1.8347   -0.0116 C   0  0  1  0  0  0  0  0  0  0  0  0
    1.6686   -1.0429   -0.1917 C   0  0  0  0  0  0  0  0  0  0  0  0
    1.3786    0.2658    0.3917 N   0  0  0  0  0  0  0  0  0  0  0  0
   -0.0541    0.4302    0.6095 C   0  0  0  0  0  0  0  0  0  0  0  0
    0.3679   -2.4962    1.3894 C   0  0  0  0  0  0  0  0  0  0  0  0
    1.1987   -3.7756    1.4089 C   0  0  0  0  0  0  0  0  0  0  0  0
    2.2689    1.2026    0.8442 C   0  0  0  0  0  0  0  0  0  0  0  0
    3.5790    0.9256    0.5635 N   0  0  0  0  0  0  0  0  0  0  0  0
    1.9274    2.2075    1.4587 O   0  0  0  0  0  0  0  0  0  0  0  0
    4.6130    1.8930    0.9372 C   0  0  0  0  0  0  0  0  0  0  0  0
    6.0404    1.3939    0.7485 C   0  0  0  0  0  0  0  0  0  0  0  0
    6.9389    2.3654    1.0193 F   0  0  0  0  0  0  0  0  0  0  0  0
    6.2406    0.9959   -0.5312 F   0  0  0  0  0  0  0  0  0  0  0  0
    6.3141    0.3415    1.5498 F   0  0  0  0  0  0  0  0  0  0  0  0
   -4.9898    1.3407    2.2010 N   0  0  0  0  0  0  0  0  0  0  0  0
   -4.6188    1.6587    0.9296 C   0  0  0  0  0  0  0  0  0  0  0  0
   -3.4981    1.2691    0.2213 C   0  0  0  0  0  0  0  0  0  0  0  0
   -2.6043    0.4190    0.8995 N   0  0  0  0  0  0  0  0  0  0  0  0
   -2.9112    0.0837    2.2019 C   0  0  0  0  0  0  0  0  0  0  0  0
   -4.1320    0.5643    2.8199 C   0  0  0  0  0  0  0  0  0  0  0  0
   -3.5272    1.8650   -1.0489 C   0  0  0  0  0  0  0  0  0  0  0  0
   -4.6927    2.6093   -1.0934 C   0  0  0  0  0  0  0  0  0  0  0  0
   -5.3471    2.4756    0.1112 N   0  0  0  0  0  0  0  0  0  0  0  0
   -1.9823   -0.6610    2.7558 N   0  0  0  0  0  0  0  0  0  0  0  0
   -1.0406   -0.8148    1.7688 C   0  0  0  0  0  0  0  0  0  0  0  0
   -1.4113   -0.1982    0.5809 C   0  0  0  0  0  0  0  0  0  0  0  0
   -0.7418   -0.0978   -0.7613 C   0  0  2  0  0  0  0  0  0  0  0  0
    0.1185   -1.3020   -1.2103 C   0  0  1  0  0  0  0  0  0  0  0  0
    1.4853   -1.0419   -0.5713 C   0  0  0  0  0  0  0  0  0  0  0  0
    1.5539    0.4055   -0.4245 N   0  0  0  0  0  0  0  0  0  0  0  0
    0.2911    1.0381   -0.7791 C   0  0  0  0  0  0  0  0  0  0  0  0
   -0.4641   -2.6951   -0.9674 C   0  0  0  0  0  0  0  0  0  0  0  0
    0.3674   -3.7908   -1.6218 C   0  0  0  0  0  0  0  0  0  0  0  0
    2.6693    1.1669   -0.1918 C   0  0  0  0  0  0  0  0  0  0  0  0
    3.7901    0.4506    0.1316 N   0  0  0  0  0  0  0  0  0  0  0  0
    2.6736    2.3905   -0.2769 O   0  0  0  0  0  0  0  0  0  0  0  0
    5.0189    1.1668    0.4814 C   0  0  0  0  0  0  0  0  0  0  0  0
    6.2461    0.2767    0.6352 C   0  0  0  0  0  0  0  0  0  0  0  0
    7.3154    0.9856    1.0577 F   0  0  0  0  0  0  0  0  0  0  0  0
    6.0157   -0.6997    1.5457 F   0  0  0  0  0  0  0  0  0  0  0  0
    6.5808   -0.3221   -0.5284 F   0  0  0  0  0  0  0  0  0  0  0  0
    0.7644   -0.1951    0.0000 H   0  0  0  0  0  0  0  0  0  0  0  0
   -0.7624   -0.2028    0.0000 H   0  0  0  0  0  0  0  0  0  0  0  0
   -6.4954   -0.3650    0.2583 H   0  0  0  0  0  0  0  0  0  0  0  0
   -1.1824    1.8697   -1.7630 H   0  0  0  0  0  0  0  0  0  0  0  0
   -2.6286    3.9971   -2.6181 H   0  0  0  0  0  0  0  0  0  0  0  0
   -5.0341    3.5873   -1.9660 H   0  0  0  0  0  0  0  0  0  0  0  0
   -2.4326   -3.0248    0.7480 H   0  0  0  0  0  0  0  0  0  0  0  0
   -0.5702   -0.4085   -1.2979 H   0  0  0  0  0  0  0  0  0  0  0  0
    0.2480   -2.6064   -0.7826 H   0  0  0  0  0  0  0  0  0  0  0  0
    2.5423   -1.4987    0.2813 H   0  0  0  0  0  0  0  0  0  0  0  0
    1.8874   -0.8848   -1.2542 H   0  0  0  0  0  0  0  0  0  0  0  0
   -0.3616    1.4374    0.3220 H   0  0  0  0  0  0  0  0  0  0  0  0
   -0.2615    0.3096    1.6794 H   0  0  0  0  0  0  0  0  0  0  0  0
    0.7692   -1.8116    2.1464 H   0  0  0  0  0  0  0  0  0  0  0  0
   -0.6344   -2.7557    1.7265 H   0  0  0  0  0  0  0  0  0  0  0  0
    1.1682   -4.2270    2.4059 H   0  0  0  0  0  0  0  0  0  0  0  0
    2.2467   -3.5837    1.1619 H   0  0  0  0  0  0  0  0  0  0  0  0
    0.8050   -4.5072    0.6959 H   0  0  0  0  0  0  0  0  0  0  0  0
    3.7244    0.4314   -0.3052 H   0  0  0  0  0  0  0  0  0  0  0  0
    4.4577    2.1785    1.9836 H   0  0  0  0  0  0  0  0  0  0  0  0
    4.4536    2.7869    0.3238 H   0  0  0  0  0  0  0  0  0  0  0  0
   -4.3414    0.2586    3.8574 H   0  0  0  0  0  0  0  0  0  0  0  0
   -2.8101    1.7976   -1.8542 H   0  0  0  0  0  0  0  0  0  0  0  0
   -5.1123    3.2296   -1.8747 H   0  0  0  0  0  0  0  0  0  0  0  0
   -6.2207    2.9123    0.3714 H   0  0  0  0  0  0  0  0  0  0  0  0
   -0.1400   -1.3809    1.9684 H   0  0  0  0  0  0  0  0  0  0  0  0
   -1.5062    0.0671   -1.5255 H   0  0  0  0  0  0  0  0  0  0  0  0
    0.2524   -1.1899   -2.2980 H   0  0  0  0  0  0  0  0  0  0  0  0
    2.3082   -1.3962   -1.2007 H   0  0  0  0  0  0  0  0  0  0  0  0
    1.5845   -1.4935    0.4202 H   0  0  0  0  0  0  0  0  0  0  0  0
    0.4040    1.4438   -1.7919 H   0  0  0  0  0  0  0  0  0  0  0  0
    0.0688    1.8659   -0.0971 H   0  0  0  0  0  0  0  0  0  0  0  0
   -1.4821   -2.7369   -1.3728 H   0  0  0  0  0  0  0  0  0  0  0  0
   -0.5346   -2.9174    0.1014 H   0  0  0  0  0  0  0  0  0  0  0  0
   -0.1033   -4.7662   -1.4626 H   0  0  0  0  0  0  0  0  0  0  0  0
    1.3756   -3.8319   -1.1982 H   0  0  0  0  0  0  0  0  0  0  0  0
    0.4521   -3.6289   -2.7010 H   0  0  0  0  0  0  0  0  0  0  0  0
    3.6052   -0.3935    0.6548 H   0  0  0  0  0  0  0  0  0  0  0  0
    4.8269    1.6928    1.4235 H   0  0  0  0  0  0  0  0  0  0  0  0
    5.2080    1.9246   -0.2871 H   0  0  0  0  0  0  0  0  0  0  0  0
  2  3  1  0
  4  5  1  0
  6  7  1  0
  7  2  2  0
  3 10  1  0
  3  4  2  0
  4  8  1  0
  8  9  2  0
  9 10  1  0
  5 13  1  0
  5  6  1  0
  6 11  2  0
 11 12  1  0
 12 13  2  0
 14 13  1  0
 14 15  1  0
 14 18  1  0
 15 16  1  0
 16 17  1  0
 17 18  1  0
 15 19  1  0
 19 20  1  0
 17 21  1  0
 21 22  1  0
 21 23  2  0
 22 24  1  0
 24 25  1  0
 25 26  1  0
 25 27  1  0
 25 28  1  0
 29 30  1  0
 31 32  1  0
 33 34  1  0
 34 29  2  0
 30 37  1  0
 30 31  2  0
 31 35  1  0
 35 36  2  0
 36 37  1  0
 32 40  1  0
 32 33  1  0
 33 38  2  0
 38 39  1  0
 39 40  2  0
 41 40  1  0
 41 42  1  0
 41 45  1  0
 42 43  1  0
 43 44  1  0
 44 45  1  0
 42 46  1  0
 46 47  1  0
 44 48  1  0
 48 49  1  0
 48 50  2  0
 49 51  1  0
 51 52  1  0
 52 53  1  0
 52 54  1  0
 52 55  1  0
  1 56  1  0
  1 57  1  0
  7 58  1  0
  8 59  1  0
  9 60  1  0
 10 61  1  0
 12 62  1  0
 14 63  1  6
 15 64  1  6
 16 65  1  0
 16 66  1  0
 18 67  1  0
 18 68  1  0
 19 69  1  0
 19 70  1  0
 20 71  1  0
 20 72  1  0
 20 73  1  0
 22 74  1  0
 24 75  1  0
 24 76  1  0
 34 77  1  0
 35 78  1  0
 36 79  1  0
 37 80  1  0
 39 81  1  0
 41 82  1  6
 42 83  1  6
 43 84  1  0
 43 85  1  0
 45 86  1  0
 45 87  1  0
 46 88  1  0
 46 89  1  0
 47 90  1  0
 47 91  1  0
 47 92  1  0
 49 93  1  0
 51 94  1  0
 51 95  1  0
M  END
$$$$
