
     RDKit          3D

 95100  0  0  0  0  0  0  0  0999 V2000
    0.0194    0.3972    0.0000 O   0  0  0  0  0  0  0  0  0  0  0  0
   -5.6745   -1.3325   -0.1726 N   0  0  0  0  0  0  0  0  0  0  0  0
   -4.5720   -1.7597    0.5029 C   0  0  0  0  0  0  0  0  0  0  0  0
   -3.3269   -1.1686    0.6115 C   0  0  0  0  0  0  0  0  0  0  0  0
   -3.1556    0.0454   -0.0827 N   0  0  0  0  0  0  0  0  0  0  0  0
   -4.2566    0.5565   -0.7383 C   0  0  0  0  0  0  0  0  0  0  0  0
   -5.5054   -0.1803   -0.7752 C   0  0  0  0  0  0  0  0  0  0  0  0
   -2.5240   -1.9471    1.4593 C   0  0  0  0  0  0  0  0  0  0  0  0
   -3.2984   -3.0334    1.8281 C   0  0  0  0  0  0  0  0  0  0  0  0
   -4.5373   -2.9109    1.2382 N   0  0  0  0  0  0  0  0  0  0  0  0
   -4.0269    1.7482   -1.2362 N   0  0  0  0  0  0  0  0  0  0  0  0
   -2.7175    2.0026   -0.9092 C   0  0  0  0  0  0  0  0  0  0  0  0
   -2.1097    0.9342   -0.2637 C   0  0  0  0  0  0  0  0  0  0  0  0
   -0.7229    0.7086    0.2455 C   0  0  2  0  0  0  0  0  0  0  0  0
    0.3176    1.8579    0.1369 C   0  0  1  0  0  0  0  0  0  0  0  0
    1.5810    1.1072    0.6083 C   0  0  0  0  0  0  0  0  0  0  0  0
    1.4142   -0.2422    0.0740 N   0  0  0  0  0  0  0  0  0  0  0  0
    0.0489   -0.4499   -0.3950 C   0  0  0  0  0  0  0  0  0  0  0  0
    0.5800    2.4282   -1.2811 C   0  0  0  0  0  0  0  0  0  0  0  0
    1.4044    3.7130   -1.2423 C   0  0  0  0  0  0  0  0  0  0  0  0
    2.3733   -1.2047   -0.0999 C   0  0  0  0  0  0  0  0  0  0  0  0
    3.6002   -0.8882    0.4209 N   0  0  0  0  0  0  0  0  0  0  0  0
    2.1584   -2.2660   -0.6751 O   0  0  0  0  0  0  0  0  0  0  0  0
    4.6753   -1.8825    0.3755 C   0  0  0  0  0  0  0  0  0  0  0  0
    6.0333   -1.3622    0.8318 C   0  0  0  0  0  0  0  0  0  0  0  0
    6.9455   -2.3542    0.8844 F   0  0  0  0  0  0  0  0  0  0  0  0
    5.9394   -0.8199    2.0703 F   0  0  0  0  0  0  0  0  0  0  0  0
    6.5056   -0.4064    0.0036 F   0  0  0  0  0  0  0  0  0  0  0  0
   -5.1463   -1.3288   -0.0732 N   0  0  0  0  0  0  0  0  0  0  0  0
   -3.9166   -1.8975    0.0543 C   0  0  0  0  0  0  0  0  0  0  0  0
   -2.7010   -1.3202    0.3916 C   0  0  0  0  0  0  0  0  0  0  0  0
   -2.7200    0.0788    0.6243 N   0  0  0  0  0  0  0  0  0  0  0  0
   -3.9687    0.6879    0.5751 C   0  0  0  0  0  0  0  0  0  0  0  0
   -5.1581   -0.0500    0.2016 C   0  0  0  0  0  0  0  0  0  0  0  0
   -1.7451   -2.3482    0.4584 C   0  0  0  0  0  0  0  0  0  0  0  0
   -2.3895   -3.5213    0.1056 C   0  0  0  0  0  0  0  0  0  0  0  0
   -3.7085   -3.2336   -0.1392 N   0  0  0  0  0  0  0  0  0  0  0  0
   -3.9374    1.9506    0.9250 N   0  0  0  0  0  0  0  0  0  0  0  0
   -2.6175    2.1948    1.1609 C   0  0  0  0  0  0  0  0  0  0  0  0
   -1.8083    1.0854    0.9127 C   0  0  0  0  0  0  0  0  0  0  0  0
   -0.3074    1.0915    0.9837 C   0  0  2  0  0  0  0  0  0  0  0  0
    0.3476    2.3118    0.2596 C   0  0  1  0  0  0  0  0  0  0  0  0
    1.8309    1.9286    0.3174 C   0  0  0  0  0  0  0  0  0  0  0  0
    1.8320    0.4833    0.1691 N   0  0  0  0  0  0  0  0  0  0  0  0
    0.5085   -0.0683    0.4327 C   0  0  0  0  0  0  0  0  0  0  0  0
   -0.1215    2.5104   -1.2016 C   0  0  0  0  0  0  0  0  0  0  0  0
    0.4217    3.7912   -1.8226 C   0  0  0  0  0  0  0  0  0  0  0  0
    2.9490   -0.1741   -0.2770 C   0  0  0  0  0  0  0  0  0  0  0  0
    2.8092   -1.5304   -0.4003 N   0  0  0  0  0  0  0  0  0  0  0  0
    3.9916    0.4025   -0.5668 O   0  0  0  0  0  0  0  0  0  0  0  0
    3.9779   -2.3405   -0.7479 C   0  0  0  0  0  0  0  0  0  0  0  0
    4.9495   -2.6087    0.4071 C   0  0  0  0  0  0  0  0  0  0  0  0
    5.6028   -1.5096    0.8243 F   0  0  0  0  0  0  0  0  0  0  0  0
    5.8750   -3.5244    0.0421 F   0  0  0  0  0  0  0  0  0  0  0  0
    4.2832   -3.1219    1.4725 F   0  0  0  0  0  0  0  0  0  0  0  0
    0.7526   -0.2356    0.0000 H   0  0  0  0  0  0  0  0  0  0  0  0
   -0.7720   -0.1615    0.0000 H   0  0  0  0  0  0  0  0  0  0  0  0
   -6.3466    0.2546   -1.3372 H   0  0  0  0  0  0  0  0  0  0  0  0
   -1.5108   -1.7725    1.7933 H   0  0  0  0  0  0  0  0  0  0  0  0
   -3.0807   -3.8801    2.4663 H   0  0  0  0  0  0  0  0  0  0  0  0
   -5.3141   -3.5518    1.3328 H   0  0  0  0  0  0  0  0  0  0  0  0
   -2.2863    2.9591   -1.1689 H   0  0  0  0  0  0  0  0  0  0  0  0
   -0.8232    0.4996    1.3218 H   0  0  0  0  0  0  0  0  0  0  0  0
    0.0629    2.6754    0.8222 H   0  0  0  0  0  0  0  0  0  0  0  0
    2.5247    1.5462    0.2713 H   0  0  0  0  0  0  0  0  0  0  0  0
    1.6032    1.0269    1.7010 H   0  0  0  0  0  0  0  0  0  0  0  0
    0.0477   -0.3981   -1.4897 H   0  0  0  0  0  0  0  0  0  0  0  0
   -0.2989   -1.4445   -0.1092 H   0  0  0  0  0  0  0  0  0  0  0  0
    1.1038    1.6984   -1.9122 H   0  0  0  0  0  0  0  0  0  0  0  0
   -0.3498    2.6552   -1.8023 H   0  0  0  0  0  0  0  0  0  0  0  0
    0.9290    4.4609   -0.6002 H   0  0  0  0  0  0  0  0  0  0  0  0
    1.4869    4.1343   -2.2494 H   0  0  0  0  0  0  0  0  0  0  0  0
    2.4175    3.5309   -0.8720 H   0  0  0  0  0  0  0  0  0  0  0  0
    3.5689   -0.3067    1.2452 H   0  0  0  0  0  0  0  0  0  0  0  0
    4.3674   -2.7171    1.0185 H   0  0  0  0  0  0  0  0  0  0  0  0
    4.7490   -2.2636   -0.6497 H   0  0  0  0  0  0  0  0  0  0  0  0
   -6.1118    0.5015    0.1441 H   0  0  0  0  0  0  0  0  0  0  0  0
   -0.7079   -2.3243    0.7418 H   0  0  0  0  0  0  0  0  0  0  0  0
   -2.0300   -4.5406    0.0258 H   0  0  0  0  0  0  0  0  0  0  0  0
   -4.4313   -3.8921   -0.3975 H   0  0  0  0  0  0  0  0  0  0  0  0
   -2.2907    3.1833    1.4674 H   0  0  0  0  0  0  0  0  0  0  0  0
   -0.0572    1.1848    2.0546 H   0  0  0  0  0  0  0  0  0  0  0  0
    0.1724    3.2376    0.8212 H   0  0  0  0  0  0  0  0  0  0  0  0
    2.2505    2.1500    1.3063 H   0  0  0  0  0  0  0  0  0  0  0  0
    2.4581    2.4096   -0.4344 H   0  0  0  0  0  0  0  0  0  0  0  0
    0.6200   -0.8549    1.1816 H   0  0  0  0  0  0  0  0  0  0  0  0
    0.1202   -0.4749   -0.5058 H   0  0  0  0  0  0  0  0  0  0  0  0
    0.1736    1.6594   -1.8268 H   0  0  0  0  0  0  0  0  0  0  0  0
   -1.2138    2.5672   -1.2482 H   0  0  0  0  0  0  0  0  0  0  0  0
    0.1309    4.6679   -1.2342 H   0  0  0  0  0  0  0  0  0  0  0  0
    0.0178    3.9167   -2.8313 H   0  0  0  0  0  0  0  0  0  0  0  0
    1.5120    3.7798   -1.9054 H   0  0  0  0  0  0  0  0  0  0  0  0
    2.1572   -1.9558    0.2401 H   0  0  0  0  0  0  0  0  0  0  0  0
    4.5094   -1.8588   -1.5747 H   0  0  0  0  0  0  0  0  0  0  0  0
    3.5872   -3.2960   -1.1139 H   0  0  0  0  0  0  0  0  0  0  0  0
  2  3  1  0
  4  5  1  0
  6  7  1  0
  7  2  2  0
  3 10  1  0
  3  4  2  0
  4  8  1  0
  8  9  2  0
  9 10  1  0
  5 13  1  0
  5  6  1  0
  6 11  2  0
 11 12  1  0
 12 13  2  0
 14 13  1  0
 14 15  1  0
 14 18  1  0
 15 16  1  0
 16 17  1  0
 17 18  1  0
 15 19  1  0
 19 20  1  0
 17 21  1  0
 21 22  1  0
 21 23  2  0
 22 24  1  0
 24 25  1  0
 25 26  1  0
 25 27  1  0
 25 28  1  0
 29 30  1  0
 31 32  1  0
 33 34  1  0
 34 29  2  0
 30 37  1  0
 30 31  2  0
 31 35  1  0
 35 36  2  0
 36 37  1  0
 32 40  1  0
 32 33  1  0
 33 38  2  0
 38 39  1  0
 39 40  2  0
 41 40  1  0
 41 42  1  0
 41 45  1  0
 42 43  1  0
 43 44  1  0
 44 45  1  0
 42 46  1  0
 46 47  1  0
 44 48  1  0
 48 49  1  0
 48 50  2  0
 49 51  1  0
 51 52  1  0
 52 53  1  0
 52 54  1  0
 52 55  1  0
  1 56  1  0
  1 57  1  0
  7 58  1  0
  8 59  1  0
  9 60  1  0
 10 61  1  0
 12 62  1  0
 14 63  1  1
 15 64  1  1
 16 65  1  0
 16 66  1  0
 18 67  1  0
 18 68  1  0
 19 69  1  0
 19 70  1  0
 20 71  1  0
 20 72  1  0
 20 73  1  0
 22 74  1  0
 24 75  1  0
 24 76  1  0
 34 77  1  0
 35 78  1  0
 36 79  1  0
 37 80  1  0
 39 81  1  0
 41 82  1  1
 42 83  1  1
 43 84  1  0
 43 85  1  0
 45 86  1  0
 45 87  1  0
 46 88  1  0
 46 89  1  0
 47 90  1  0
 47 91  1  0
 47 92  1  0
 49 93  1  0
 51 94  1  0
 51 95  1  0
M  END
$$$$
