
     RDKit          3D

 25 26  0  0  0  0  0  0  0  0999 V2000
    0.1860    0.4232   -0.0716 N   0  0  0  0  0  0  0  0  0  0  0  0
    0.5974    1.7580   -0.2957 C   0  0  0  0  0  0  0  0  0  0  0  0
    1.1474   -0.5852    0.0523 C   0  0  0  0  0  0  0  0  0  0  0  0
    2.0679    1.9943   -0.3657 C   0  0  0  0  0  0  0  0  0  0  0  0
    2.4675   -0.3563   -0.0256 C   0  0  0  0  0  0  0  0  0  0  0  0
    2.9373    0.9874   -0.2461 C   0  0  0  0  0  0  0  0  0  0  0  0
   -1.2266    0.1090    0.0148 C   0  0  0  0  0  0  0  0  0  0  0  0
   -0.1205    2.7414   -0.4732 O   0  0  0  0  0  0  0  0  0  0  0  0
    3.4981   -1.4336    0.1265 C   0  0  0  0  0  0  0  0  0  0  0  0
   -2.1678    1.0428    0.4756 C   0  0  0  0  0  0  0  0  0  0  0  0
   -1.7082   -1.1632   -0.3470 C   0  0  0  0  0  0  0  0  0  0  0  0
   -3.0678   -1.4845   -0.2535 C   0  0  0  0  0  0  0  0  0  0  0  0
   -3.5278    0.7234    0.5716 C   0  0  0  0  0  0  0  0  0  0  0  0
   -3.9777   -0.5405    0.2075 C   0  0  0  0  0  0  0  0  0  0  0  0
    0.7917   -1.5882    0.2615 H   0  0  0  0  0  0  0  0  0  0  0  0
    2.3810    3.0172   -0.5317 H   0  0  0  0  0  0  0  0  0  0  0  0
    4.0050    1.1733   -0.3071 H   0  0  0  0  0  0  0  0  0  0  0  0
    4.1556   -1.2207    0.9762 H   0  0  0  0  0  0  0  0  0  0  0  0
    3.0411   -2.4141    0.2986 H   0  0  0  0  0  0  0  0  0  0  0  0
    4.1120   -1.5087   -0.7775 H   0  0  0  0  0  0  0  0  0  0  0  0
   -1.8667    2.0339    0.8042 H   0  0  0  0  0  0  0  0  0  0  0  0
   -1.0471   -1.9214   -0.7560 H   0  0  0  0  0  0  0  0  0  0  0  0
   -3.4135   -2.4707   -0.5528 H   0  0  0  0  0  0  0  0  0  0  0  0
   -4.2304    1.4689    0.9356 H   0  0  0  0  0  0  0  0  0  0  0  0
   -5.0338   -0.7858    0.2789 H   0  0  0  0  0  0  0  0  0  0  0  0
  2  1  1  0
  3  1  1  0
  4  2  1  0
  5  3  2  0
  6  5  1  0
  7  1  1  0
  8  2  2  0
  9  5  1  0
 10  7  2  0
 11  7  1  0
 12 11  2  0
 13 10  1  0
 14 12  1  0
  4  6  2  0
 13 14  2  0
  3 15  1  0
  4 16  1  0
  6 17  1  0
  9 18  1  0
  9 19  1  0
  9 20  1  0
 10 21  1  0
 11 22  1  0
 12 23  1  0
 13 24  1  0
 14 25  1  0
M  END
$$$$
