
     RDKit          3D

 25 26  0  0  0  0  0  0  0  0999 V2000
    0.1582   -0.4399   -0.2123 N   0  0  0  0  0  0  0  0  0  0  0  0
    0.4826   -1.8161   -0.2559 C   0  0  0  0  0  0  0  0  0  0  0  0
    1.1823    0.5128   -0.2252 C   0  0  0  0  0  0  0  0  0  0  0  0
    1.9332   -2.1519   -0.3330 C   0  0  0  0  0  0  0  0  0  0  0  0
    2.4843    0.1922   -0.2826 C   0  0  0  0  0  0  0  0  0  0  0  0
    2.8659   -1.1958   -0.3354 C   0  0  0  0  0  0  0  0  0  0  0  0
   -1.2301   -0.0282   -0.1417 C   0  0  0  0  0  0  0  0  0  0  0  0
   -0.2941   -2.7690   -0.2033 O   0  0  0  0  0  0  0  0  0  0  0  0
    3.5807    1.2132   -0.3159 C   0  0  0  0  0  0  0  0  0  0  0  0
   -2.2630   -0.8037   -0.6914 C   0  0  0  0  0  0  0  0  0  0  0  0
   -1.5945    1.1854    0.4711 C   0  0  0  0  0  0  0  0  0  0  0  0
   -2.9299    1.6020    0.5322 C   0  0  0  0  0  0  0  0  0  0  0  0
   -3.5990   -0.3885   -0.6330 C   0  0  0  0  0  0  0  0  0  0  0  0
   -3.9324    0.8146   -0.0216 C   0  0  0  0  0  0  0  0  0  0  0  0
    0.8898    1.5571   -0.2292 H   0  0  0  0  0  0  0  0  0  0  0  0
    2.1794   -3.2054   -0.3719 H   0  0  0  0  0  0  0  0  0  0  0  0
    3.9188   -1.4555   -0.3839 H   0  0  0  0  0  0  0  0  0  0  0  0
    4.1697    1.1164   -1.2343 H   0  0  0  0  0  0  0  0  0  0  0  0
    3.1879    2.2351   -0.2804 H   0  0  0  0  0  0  0  0  0  0  0  0
    4.2505    1.0862    0.5414 H   0  0  0  0  0  0  0  0  0  0  0  0
   -2.0555   -1.7361   -1.2094 H   0  0  0  0  0  0  0  0  0  0  0  0
   -0.8564    1.8150    0.9588 H   0  0  0  0  0  0  0  0  0  0  0  0
   -3.1838    2.5376    1.0238 H   0  0  0  0  0  0  0  0  0  0  0  0
   -4.3748   -1.0112   -1.0714 H   0  0  0  0  0  0  0  0  0  0  0  0
   -4.9699    1.1338    0.0263 H   0  0  0  0  0  0  0  0  0  0  0  0
  2  1  1  0
  3  1  1  0
  4  2  1  0
  5  3  2  0
  6  5  1  0
  7  1  1  0
  8  2  2  0
  9  5  1  0
 10  7  2  0
 11  7  1  0
 12 11  2  0
 13 10  1  0
 14 12  1  0
  4  6  2  0
 13 14  2  0
  3 15  1  0
  4 16  1  0
  6 17  1  0
  9 18  1  0
  9 19  1  0
  9 20  1  0
 10 21  1  0
 11 22  1  0
 12 23  1  0
 13 24  1  0
 14 25  1  0
M  END
$$$$
