
     RDKit          3D

 25 26  0  0  0  0  0  0  0  0999 V2000
   -0.1901    0.4185   -0.0872 N   0  0  0  0  0  0  0  0  0  0  0  0
   -0.6148    1.7411   -0.3543 C   0  0  0  0  0  0  0  0  0  0  0  0
   -1.1420   -0.5914    0.0879 C   0  0  0  0  0  0  0  0  0  0  0  0
   -2.0869    1.9570   -0.4492 C   0  0  0  0  0  0  0  0  0  0  0  0
   -2.4646   -0.3767    0.0112 C   0  0  0  0  0  0  0  0  0  0  0  0
   -2.9473    0.9520   -0.2655 C   0  0  0  0  0  0  0  0  0  0  0  0
    1.2253    0.1225    0.0157 C   0  0  0  0  0  0  0  0  0  0  0  0
    0.0910    2.7407   -0.4838 O   0  0  0  0  0  0  0  0  0  0  0  0
   -3.4839   -1.4622    0.1796 C   0  0  0  0  0  0  0  0  0  0  0  0
    2.1911    0.8628   -0.6839 C   0  0  0  0  0  0  0  0  0  0  0  0
    1.6859   -0.9406    0.8152 C   0  0  0  0  0  0  0  0  0  0  0  0
    3.0488   -1.2467    0.9110 C   0  0  0  0  0  0  0  0  0  0  0  0
    3.5546    0.5576   -0.5911 C   0  0  0  0  0  0  0  0  0  0  0  0
    3.9834   -0.4974    0.2060 C   0  0  0  0  0  0  0  0  0  0  0  0
   -0.7742   -1.5982    0.2529 H   0  0  0  0  0  0  0  0  0  0  0  0
   -2.4099    2.9687   -0.6591 H   0  0  0  0  0  0  0  0  0  0  0  0
   -4.0168    1.1257   -0.3297 H   0  0  0  0  0  0  0  0  0  0  0  0
   -4.1492   -1.2378    1.0202 H   0  0  0  0  0  0  0  0  0  0  0  0
   -4.0910   -1.5647   -0.7263 H   0  0  0  0  0  0  0  0  0  0  0  0
   -3.0171   -2.4332    0.3771 H   0  0  0  0  0  0  0  0  0  0  0  0
    1.9090    1.6765   -1.3465 H   0  0  0  0  0  0  0  0  0  0  0  0
    1.0026   -1.5277    1.4215 H   0  0  0  0  0  0  0  0  0  0  0  0
    3.3772   -2.0648    1.5469 H   0  0  0  0  0  0  0  0  0  0  0  0
    4.2767    1.1489   -1.1486 H   0  0  0  0  0  0  0  0  0  0  0  0
    5.0420   -0.7308    0.2801 H   0  0  0  0  0  0  0  0  0  0  0  0
  2  1  1  0
  3  1  1  0
  4  2  1  0
  5  3  2  0
  6  5  1  0
  7  1  1  0
  8  2  2  0
  9  5  1  0
 10  7  2  0
 11  7  1  0
 12 11  2  0
 13 10  1  0
 14 12  1  0
  4  6  2  0
 13 14  2  0
  3 15  1  0
  4 16  1  0
  6 17  1  0
  9 18  1  0
  9 19  1  0
  9 20  1  0
 10 21  1  0
 11 22  1  0
 12 23  1  0
 13 24  1  0
 14 25  1  0
M  END
$$$$
