
     RDKit          3D

 25 26  0  0  0  0  0  0  0  0999 V2000
   -0.1484   -0.4380   -0.1208 N   0  0  0  0  0  0  0  0  0  0  0  0
   -0.4423   -1.8024   -0.3514 C   0  0  0  0  0  0  0  0  0  0  0  0
   -1.1932    0.4702    0.0793 C   0  0  0  0  0  0  0  0  0  0  0  0
   -1.8848   -2.1789   -0.3444 C   0  0  0  0  0  0  0  0  0  0  0  0
   -2.4877    0.1158    0.0702 C   0  0  0  0  0  0  0  0  0  0  0  0
   -2.8384   -1.2633   -0.1539 C   0  0  0  0  0  0  0  0  0  0  0  0
    1.2302    0.0103   -0.1065 C   0  0  0  0  0  0  0  0  0  0  0  0
    0.3551   -2.7084   -0.5908 O   0  0  0  0  0  0  0  0  0  0  0  0
   -3.6062    1.0852    0.3037 C   0  0  0  0  0  0  0  0  0  0  0  0
    2.2817   -0.8356    0.2799 C   0  0  0  0  0  0  0  0  0  0  0  0
    1.5659    1.3291   -0.4660 C   0  0  0  0  0  0  0  0  0  0  0  0
    2.8916    1.7791   -0.4416 C   0  0  0  0  0  0  0  0  0  0  0  0
    3.6080   -0.3875    0.3068 C   0  0  0  0  0  0  0  0  0  0  0  0
    3.9129    0.9200   -0.0534 C   0  0  0  0  0  0  0  0  0  0  0  0
   -0.9239    1.4992    0.2906 H   0  0  0  0  0  0  0  0  0  0  0  0
   -2.1076   -3.2244   -0.5155 H   0  0  0  0  0  0  0  0  0  0  0  0
   -3.8851   -1.5508   -0.1593 H   0  0  0  0  0  0  0  0  0  0  0  0
   -4.1901    0.7953    1.1838 H   0  0  0  0  0  0  0  0  0  0  0  0
   -4.2757    1.1159   -0.5627 H   0  0  0  0  0  0  0  0  0  0  0  0
   -3.2362    2.1024    0.4720 H   0  0  0  0  0  0  0  0  0  0  0  0
    2.0964   -1.8566    0.6025 H   0  0  0  0  0  0  0  0  0  0  0  0
    0.8126    2.0264   -0.8203 H   0  0  0  0  0  0  0  0  0  0  0  0
    3.1233    2.7990   -0.7376 H   0  0  0  0  0  0  0  0  0  0  0  0
    4.3987   -1.0673    0.6142 H   0  0  0  0  0  0  0  0  0  0  0  0
    4.9430    1.2654   -0.0357 H   0  0  0  0  0  0  0  0  0  0  0  0
  2  1  1  0
  3  1  1  0
  4  2  1  0
  5  3  2  0
  6  5  1  0
  7  1  1  0
  8  2  2  0
  9  5  1  0
 10  7  2  0
 11  7  1  0
 12 11  2  0
 13 10  1  0
 14 12  1  0
  4  6  2  0
 13 14  2  0
  3 15  1  0
  4 16  1  0
  6 17  1  0
  9 18  1  0
  9 19  1  0
  9 20  1  0
 10 21  1  0
 11 22  1  0
 12 23  1  0
 13 24  1  0
 14 25  1  0
M  END
$$$$
