
     RDKit          3D

 51 55  0  0  0  0  0  0  0  0999 V2000
   -6.4662   -0.8742   -1.1948 O   0  0  0  0  0  0  0  0  0  0  0  0
   -7.0810   -2.1689   -1.1251 C   0  0  0  0  0  0  0  0  0  0  0  0
   -6.5513   -3.0349   -0.1120 O   0  0  0  0  0  0  0  0  0  0  0  0
   -5.5969   -2.2249    0.4163 C   0  0  0  0  0  0  0  0  0  0  0  0
   -5.5474   -0.9964   -0.1990 C   0  0  0  0  0  0  0  0  0  0  0  0
   -8.4084   -2.0035   -0.9029 F   0  0  0  0  0  0  0  0  0  0  0  0
   -6.9398   -2.7760   -2.3295 F   0  0  0  0  0  0  0  0  0  0  0  0
   -4.6464   -0.0224    0.1845 C   0  0  0  0  0  0  0  0  0  0  0  0
   -4.7483   -2.5457    1.4497 C   0  0  0  0  0  0  0  0  0  0  0  0
   -3.8278   -1.5729    1.8561 C   0  0  0  0  0  0  0  0  0  0  0  0
   -3.7568   -0.2953    1.2412 C   0  0  0  0  0  0  0  0  0  0  0  0
   -2.7225    0.7267    1.7110 C   0  0  0  0  0  0  0  0  0  0  0  0
   -2.9270    1.3153    3.1081 C   0  0  0  0  0  0  0  0  0  0  0  0
   -3.1442    2.1821    1.9101 C   0  0  0  0  0  0  0  0  0  0  0  0
   -1.2923    0.4610    1.2818 C   0  0  0  0  0  0  0  0  0  0  0  0
   -0.5344   -0.0882    2.0668 O   0  0  0  0  0  0  0  0  0  0  0  0
   -1.0491    0.8718   -0.0086 N   0  0  0  0  0  0  0  0  0  0  0  0
    0.1820    0.7857   -0.6668 C   0  0  0  0  0  0  0  0  0  0  0  0
    1.2853    0.4005   -0.0089 N   0  0  0  0  0  0  0  0  0  0  0  0
    0.2125    1.1254   -2.0112 C   0  0  0  0  0  0  0  0  0  0  0  0
    1.4158    1.0243   -2.7032 C   0  0  0  0  0  0  0  0  0  0  0  0
    2.5711    0.5937   -2.0423 C   0  0  0  0  0  0  0  0  0  0  0  0
    2.4695    0.3229   -0.6714 C   0  0  0  0  0  0  0  0  0  0  0  0
    3.8465    0.4620   -2.8222 C   0  0  0  0  0  0  0  0  0  0  0  0
    3.5981   -0.0784    0.1900 C   0  0  0  0  0  0  0  0  0  0  0  0
    4.5374   -1.6107    1.8498 C   0  0  0  0  0  0  0  0  0  0  0  0
    3.4877   -1.2101    1.0185 C   0  0  0  0  0  0  0  0  0  0  0  0
    4.7917    0.6631    0.2484 C   0  0  0  0  0  0  0  0  0  0  0  0
    5.8516    0.2652    1.0773 C   0  0  0  0  0  0  0  0  0  0  0  0
    5.7210   -0.8764    1.8755 C   0  0  0  0  0  0  0  0  0  0  0  0
    7.1243    1.0238    1.1414 C   0  0  0  0  0  0  0  0  0  0  0  0
    7.1604    2.0581    0.2816 O   0  0  0  0  0  0  0  0  0  0  0  0
    8.0721    0.7718    1.8620 O   0  0  0  0  0  0  0  0  0  0  0  0
   -4.6377    0.9362   -0.3233 H   0  0  0  0  0  0  0  0  0  0  0  0
   -4.7861   -3.5160    1.9317 H   0  0  0  0  0  0  0  0  0  0  0  0
   -3.1380   -1.8055    2.6686 H   0  0  0  0  0  0  0  0  0  0  0  0
   -2.0455    1.4881    3.7182 H   0  0  0  0  0  0  0  0  0  0  0  0
   -3.7951    1.0080    3.6802 H   0  0  0  0  0  0  0  0  0  0  0  0
   -2.4150    2.9630    1.7229 H   0  0  0  0  0  0  0  0  0  0  0  0
   -4.1642    2.4781    1.6931 H   0  0  0  0  0  0  0  0  0  0  0  0
   -1.8318    1.2242   -0.5345 H   0  0  0  0  0  0  0  0  0  0  0  0
   -0.6806    1.4451   -2.5364 H   0  0  0  0  0  0  0  0  0  0  0  0
    1.4442    1.2683   -3.7622 H   0  0  0  0  0  0  0  0  0  0  0  0
    3.6373    0.2711   -3.8817 H   0  0  0  0  0  0  0  0  0  0  0  0
    4.4335    1.3831   -2.7512 H   0  0  0  0  0  0  0  0  0  0  0  0
    4.4458   -0.3839   -2.4707 H   0  0  0  0  0  0  0  0  0  0  0  0
    4.4226   -2.4888    2.4809 H   0  0  0  0  0  0  0  0  0  0  0  0
    2.5576   -1.7809    1.0252 H   0  0  0  0  0  0  0  0  0  0  0  0
    4.8870    1.5695   -0.3455 H   0  0  0  0  0  0  0  0  0  0  0  0
    6.5349   -1.1902    2.5272 H   0  0  0  0  0  0  0  0  0  0  0  0
    8.0440    2.4558    0.4357 H   0  0  0  0  0  0  0  0  0  0  0  0
  1  2  1  0
  1  5  1  0
  2  3  1  0
  3  4  1  0
  2  6  1  0
  2  7  1  0
  8  5  1  0
  5  4  2  0
  4  9  1  0
  8 11  2  0
  9 10  2  0
 10 11  1  0
 11 12  1  0
 12 13  1  0
 13 14  1  0
 14 12  1  0
 12 15  1  0
 15 16  2  0
 15 17  1  0
 17 18  1  0
 19 18  2  0
 18 20  1  0
 19 23  1  0
 20 21  2  0
 21 22  1  0
 22 23  2  0
 22 24  1  0
 23 25  1  0
 27 25  1  0
 25 28  2  0
 26 27  2  0
 26 30  1  0
 28 29  1  0
 29 30  2  0
 29 31  1  0
 31 32  1  0
 31 33  2  0
  8 34  1  0
  9 35  1  0
 10 36  1  0
 13 37  1  0
 13 38  1  0
 14 39  1  0
 14 40  1  0
 17 41  1  0
 20 42  1  0
 21 43  1  0
 24 44  1  0
 24 45  1  0
 24 46  1  0
 26 47  1  0
 27 48  1  0
 28 49  1  0
 30 50  1  0
 32 51  1  0
M  END
$$$$
