
     RDKit          3D

 51 55  0  0  0  0  0  0  0  0999 V2000
    6.6140   -0.8452    0.1307 O   0  0  0  0  0  0  0  0  0  0  0  0
    7.2956   -1.4524   -0.9767 C   0  0  0  0  0  0  0  0  0  0  0  0
    6.6717   -1.2549   -2.2518 O   0  0  0  0  0  0  0  0  0  0  0  0
    5.6075   -0.4978   -1.8781 C   0  0  0  0  0  0  0  0  0  0  0  0
    5.5730   -0.2652   -0.5237 C   0  0  0  0  0  0  0  0  0  0  0  0
    8.5563   -0.9560   -1.0313 F   0  0  0  0  0  0  0  0  0  0  0  0
    7.3899   -2.7842   -0.7426 F   0  0  0  0  0  0  0  0  0  0  0  0
    4.5686    0.4766    0.0650 C   0  0  0  0  0  0  0  0  0  0  0  0
    4.6392    0.0009   -2.7181 C   0  0  0  0  0  0  0  0  0  0  0  0
    3.6127    0.7581   -2.1438 C   0  0  0  0  0  0  0  0  0  0  0  0
    3.5531    1.0157   -0.7486 C   0  0  0  0  0  0  0  0  0  0  0  0
    2.3976    1.8306   -0.1680 C   0  0  0  0  0  0  0  0  0  0  0  0
    2.3882    3.3258   -0.4855 C   0  0  0  0  0  0  0  0  0  0  0  0
    2.6816    2.8762    0.9090 C   0  0  0  0  0  0  0  0  0  0  0  0
    1.0534    1.1289   -0.1285 C   0  0  0  0  0  0  0  0  0  0  0  0
    0.2547    1.3406   -1.0278 O   0  0  0  0  0  0  0  0  0  0  0  0
    0.9336    0.2885    0.9540 N   0  0  0  0  0  0  0  0  0  0  0  0
   -0.1985   -0.4691    1.2704 C   0  0  0  0  0  0  0  0  0  0  0  0
   -1.3367   -0.3255    0.5764 N   0  0  0  0  0  0  0  0  0  0  0  0
   -0.0950   -1.3551    2.3339 C   0  0  0  0  0  0  0  0  0  0  0  0
   -1.2019   -2.1255    2.6823 C   0  0  0  0  0  0  0  0  0  0  0  0
   -2.3982   -1.9867    1.9748 C   0  0  0  0  0  0  0  0  0  0  0  0
   -2.4168   -1.0737    0.9152 C   0  0  0  0  0  0  0  0  0  0  0  0
   -3.5922   -2.8123    2.3536 C   0  0  0  0  0  0  0  0  0  0  0  0
   -3.6039   -0.8086    0.0930 C   0  0  0  0  0  0  0  0  0  0  0  0
   -5.2306   -1.4983   -1.5853 C   0  0  0  0  0  0  0  0  0  0  0  0
   -4.0994   -1.7637   -0.8097 C   0  0  0  0  0  0  0  0  0  0  0  0
   -4.2627    0.4288    0.1855 C   0  0  0  0  0  0  0  0  0  0  0  0
   -5.3995    0.6997   -0.5870 C   0  0  0  0  0  0  0  0  0  0  0  0
   -5.8830   -0.2699   -1.4724 C   0  0  0  0  0  0  0  0  0  0  0  0
   -6.0594    2.0179   -0.4237 C   0  0  0  0  0  0  0  0  0  0  0  0
   -7.0880    2.1991   -1.2719 O   0  0  0  0  0  0  0  0  0  0  0  0
   -5.7512    2.8765    0.3821 O   0  0  0  0  0  0  0  0  0  0  0  0
    4.5736    0.6379    1.1379 H   0  0  0  0  0  0  0  0  0  0  0  0
    4.6642   -0.1878   -3.7864 H   0  0  0  0  0  0  0  0  0  0  0  0
    2.8256    1.1537   -2.7888 H   0  0  0  0  0  0  0  0  0  0  0  0
    3.2023    3.7383   -1.0702 H   0  0  0  0  0  0  0  0  0  0  0  0
    1.4290    3.7960   -0.6862 H   0  0  0  0  0  0  0  0  0  0  0  0
    3.6950    3.0135    1.2706 H   0  0  0  0  0  0  0  0  0  0  0  0
    1.9215    3.0699    1.6591 H   0  0  0  0  0  0  0  0  0  0  0  0
    1.7430    0.1805    1.5433 H   0  0  0  0  0  0  0  0  0  0  0  0
    0.8280   -1.4645    2.8918 H   0  0  0  0  0  0  0  0  0  0  0  0
   -1.1265   -2.8255    3.5102 H   0  0  0  0  0  0  0  0  0  0  0  0
   -3.4697   -3.2521    3.3503 H   0  0  0  0  0  0  0  0  0  0  0  0
   -4.4987   -2.1995    2.3889 H   0  0  0  0  0  0  0  0  0  0  0  0
   -3.7304   -3.6293    1.6388 H   0  0  0  0  0  0  0  0  0  0  0  0
   -5.5972   -2.2468   -2.2838 H   0  0  0  0  0  0  0  0  0  0  0  0
   -3.5902   -2.7194   -0.9235 H   0  0  0  0  0  0  0  0  0  0  0  0
   -3.8749    1.1894    0.8628 H   0  0  0  0  0  0  0  0  0  0  0  0
   -6.7614   -0.0750   -2.0821 H   0  0  0  0  0  0  0  0  0  0  0  0
   -7.4065    3.1009   -1.0532 H   0  0  0  0  0  0  0  0  0  0  0  0
  1  2  1  0
  1  5  1  0
  2  3  1  0
  3  4  1  0
  2  6  1  0
  2  7  1  0
  8  5  1  0
  5  4  2  0
  4  9  1  0
  8 11  2  0
  9 10  2  0
 10 11  1  0
 11 12  1  0
 12 13  1  0
 13 14  1  0
 14 12  1  0
 12 15  1  0
 15 16  2  0
 15 17  1  0
 17 18  1  0
 19 18  2  0
 18 20  1  0
 19 23  1  0
 20 21  2  0
 21 22  1  0
 22 23  2  0
 22 24  1  0
 23 25  1  0
 27 25  1  0
 25 28  2  0
 26 27  2  0
 26 30  1  0
 28 29  1  0
 29 30  2  0
 29 31  1  0
 31 32  1  0
 31 33  2  0
  8 34  1  0
  9 35  1  0
 10 36  1  0
 13 37  1  0
 13 38  1  0
 14 39  1  0
 14 40  1  0
 17 41  1  0
 20 42  1  0
 21 43  1  0
 24 44  1  0
 24 45  1  0
 24 46  1  0
 26 47  1  0
 27 48  1  0
 28 49  1  0
 30 50  1  0
 32 51  1  0
M  END
$$$$
