
     RDKit          3D

 51 55  0  0  0  0  0  0  0  0999 V2000
   -4.4863    2.7111   -1.3190 O   0  0  0  0  0  0  0  0  0  0  0  0
   -5.4111    2.6783   -2.4154 C   0  0  0  0  0  0  0  0  0  0  0  0
   -5.9649    1.3866   -2.7005 O   0  0  0  0  0  0  0  0  0  0  0  0
   -5.3471    0.6489   -1.7410 C   0  0  0  0  0  0  0  0  0  0  0  0
   -4.5067    1.4011   -0.9550 C   0  0  0  0  0  0  0  0  0  0  0  0
   -6.4282    3.5335   -2.1456 F   0  0  0  0  0  0  0  0  0  0  0  0
   -4.7793    3.1319   -3.5260 F   0  0  0  0  0  0  0  0  0  0  0  0
   -3.7807    0.8436    0.0785 C   0  0  0  0  0  0  0  0  0  0  0  0
   -5.5053   -0.7018   -1.5371 C   0  0  0  0  0  0  0  0  0  0  0  0
   -4.7796   -1.2881   -0.4941 C   0  0  0  0  0  0  0  0  0  0  0  0
   -3.9102   -0.5346    0.3372 C   0  0  0  0  0  0  0  0  0  0  0  0
   -3.1257   -1.2169    1.4561 C   0  0  0  0  0  0  0  0  0  0  0  0
   -3.9368   -1.8348    2.5951 C   0  0  0  0  0  0  0  0  0  0  0  0
   -3.1415   -0.5960    2.8524 C   0  0  0  0  0  0  0  0  0  0  0  0
   -1.8802   -1.9582    1.0221 C   0  0  0  0  0  0  0  0  0  0  0  0
   -1.9516   -3.1508    0.7602 O   0  0  0  0  0  0  0  0  0  0  0  0
   -0.7723   -1.1545    0.9674 N   0  0  0  0  0  0  0  0  0  0  0  0
    0.5261   -1.4944    0.5971 C   0  0  0  0  0  0  0  0  0  0  0  0
    1.3821   -0.4543    0.6513 N   0  0  0  0  0  0  0  0  0  0  0  0
    0.9187   -2.7616    0.2059 C   0  0  0  0  0  0  0  0  0  0  0  0
    2.2515   -2.9699   -0.1404 C   0  0  0  0  0  0  0  0  0  0  0  0
    3.1654   -1.9136   -0.0869 C   0  0  0  0  0  0  0  0  0  0  0  0
    2.6790   -0.6590    0.2986 C   0  0  0  0  0  0  0  0  0  0  0  0
    4.5989   -2.1547   -0.4583 C   0  0  0  0  0  0  0  0  0  0  0  0
    3.5090    0.5532    0.3694 C   0  0  0  0  0  0  0  0  0  0  0  0
    4.4865    2.3634    1.6821 C   0  0  0  0  0  0  0  0  0  0  0  0
    3.7056    1.2088    1.5970 C   0  0  0  0  0  0  0  0  0  0  0  0
    4.1018    1.1016   -0.7809 C   0  0  0  0  0  0  0  0  0  0  0  0
    4.8874    2.2601   -0.7016 C   0  0  0  0  0  0  0  0  0  0  0  0
    5.0791    2.8870    0.5346 C   0  0  0  0  0  0  0  0  0  0  0  0
    5.5287    2.8573   -1.8976 C   0  0  0  0  0  0  0  0  0  0  0  0
    5.3058    2.1489   -3.0187 O   0  0  0  0  0  0  0  0  0  0  0  0
    6.2000    3.8722   -1.9152 O   0  0  0  0  0  0  0  0  0  0  0  0
   -3.1237    1.4666    0.6772 H   0  0  0  0  0  0  0  0  0  0  0  0
   -6.1641   -1.2939   -2.1630 H   0  0  0  0  0  0  0  0  0  0  0  0
   -4.8800   -2.3599   -0.3201 H   0  0  0  0  0  0  0  0  0  0  0  0
   -3.5848   -2.7689    3.0210 H   0  0  0  0  0  0  0  0  0  0  0  0
   -5.0175   -1.7493    2.5733 H   0  0  0  0  0  0  0  0  0  0  0  0
   -2.2590   -0.6914    3.4762 H   0  0  0  0  0  0  0  0  0  0  0  0
   -3.6923    0.3231    3.0181 H   0  0  0  0  0  0  0  0  0  0  0  0
   -0.8645   -0.1767    1.2021 H   0  0  0  0  0  0  0  0  0  0  0  0
    0.2274   -3.5944    0.1596 H   0  0  0  0  0  0  0  0  0  0  0  0
    2.5684   -3.9640   -0.4474 H   0  0  0  0  0  0  0  0  0  0  0  0
    4.8394   -3.2232   -0.4301 H   0  0  0  0  0  0  0  0  0  0  0  0
    5.2763   -1.6610    0.2459 H   0  0  0  0  0  0  0  0  0  0  0  0
    4.7954   -1.7911   -1.4714 H   0  0  0  0  0  0  0  0  0  0  0  0
    4.6275    2.8551    2.6415 H   0  0  0  0  0  0  0  0  0  0  0  0
    3.2395    0.8138    2.4986 H   0  0  0  0  0  0  0  0  0  0  0  0
    3.9348    0.6253   -1.7451 H   0  0  0  0  0  0  0  0  0  0  0  0
    5.6848    3.7886    0.6056 H   0  0  0  0  0  0  0  0  0  0  0  0
    5.7744    2.6571   -3.7137 H   0  0  0  0  0  0  0  0  0  0  0  0
  1  2  1  0
  1  5  1  0
  2  3  1  0
  3  4  1  0
  2  6  1  0
  2  7  1  0
  8  5  1  0
  5  4  2  0
  4  9  1  0
  8 11  2  0
  9 10  2  0
 10 11  1  0
 11 12  1  0
 12 13  1  0
 13 14  1  0
 14 12  1  0
 12 15  1  0
 15 16  2  0
 15 17  1  0
 17 18  1  0
 19 18  2  0
 18 20  1  0
 19 23  1  0
 20 21  2  0
 21 22  1  0
 22 23  2  0
 22 24  1  0
 23 25  1  0
 27 25  1  0
 25 28  2  0
 26 27  2  0
 26 30  1  0
 28 29  1  0
 29 30  2  0
 29 31  1  0
 31 32  1  0
 31 33  2  0
  8 34  1  0
  9 35  1  0
 10 36  1  0
 13 37  1  0
 13 38  1  0
 14 39  1  0
 14 40  1  0
 17 41  1  0
 20 42  1  0
 21 43  1  0
 24 44  1  0
 24 45  1  0
 24 46  1  0
 26 47  1  0
 27 48  1  0
 28 49  1  0
 30 50  1  0
 32 51  1  0
M  END
$$$$
