
     RDKit          3D

 51 55  0  0  0  0  0  0  0  0999 V2000
   -5.5271    0.7310    2.9761 O   0  0  0  0  0  0  0  0  0  0  0  0
   -6.6508    1.5372    2.5985 C   0  0  0  0  0  0  0  0  0  0  0  0
   -6.9249    1.5701    1.1903 O   0  0  0  0  0  0  0  0  0  0  0  0
   -5.9321    0.7593    0.7390 C   0  0  0  0  0  0  0  0  0  0  0  0
   -5.1376    0.2817    1.7535 C   0  0  0  0  0  0  0  0  0  0  0  0
   -6.4358    2.8064    3.0243 F   0  0  0  0  0  0  0  0  0  0  0  0
   -7.7514    1.0715    3.2393 F   0  0  0  0  0  0  0  0  0  0  0  0
   -4.0714   -0.5581    1.5054 C   0  0  0  0  0  0  0  0  0  0  0  0
   -5.7029    0.4240   -0.5754 C   0  0  0  0  0  0  0  0  0  0  0  0
   -4.6260   -0.4273   -0.8501 C   0  0  0  0  0  0  0  0  0  0  0  0
   -3.7924   -0.9395    0.1777 C   0  0  0  0  0  0  0  0  0  0  0  0
   -2.6098   -1.8576   -0.1285 C   0  0  0  0  0  0  0  0  0  0  0  0
   -2.7138   -3.3005    0.3673 C   0  0  0  0  0  0  0  0  0  0  0  0
   -2.8015   -3.0229   -1.0984 C   0  0  0  0  0  0  0  0  0  0  0  0
   -1.2402   -1.2095   -0.0642 C   0  0  0  0  0  0  0  0  0  0  0  0
   -0.5949   -1.3006    0.9689 O   0  0  0  0  0  0  0  0  0  0  0  0
   -0.9136   -0.5596   -1.2326 N   0  0  0  0  0  0  0  0  0  0  0  0
    0.2905    0.1079   -1.4792 C   0  0  0  0  0  0  0  0  0  0  0  0
    1.2859    0.0806   -0.5818 N   0  0  0  0  0  0  0  0  0  0  0  0
    0.4108    0.7826   -2.6851 C   0  0  0  0  0  0  0  0  0  0  0  0
    1.5879    1.4749   -2.9547 C   0  0  0  0  0  0  0  0  0  0  0  0
    2.6275    1.4805   -2.0191 C   0  0  0  0  0  0  0  0  0  0  0  0
    2.4453    0.7378   -0.8458 C   0  0  0  0  0  0  0  0  0  0  0  0
    3.8761    2.2578   -2.3174 C   0  0  0  0  0  0  0  0  0  0  0  0
    3.4563    0.5975    0.2184 C   0  0  0  0  0  0  0  0  0  0  0  0
    4.0611    0.7664    2.5810 C   0  0  0  0  0  0  0  0  0  0  0  0
    3.1252    0.8963    1.5523 C   0  0  0  0  0  0  0  0  0  0  0  0
    4.7548    0.1290   -0.0478 C   0  0  0  0  0  0  0  0  0  0  0  0
    5.7008   -0.0012    0.9799 C   0  0  0  0  0  0  0  0  0  0  0  0
    5.3502    0.3234    2.2944 C   0  0  0  0  0  0  0  0  0  0  0  0
    7.0784   -0.4843    0.7209 C   0  0  0  0  0  0  0  0  0  0  0  0
    7.3129   -0.7252   -0.5817 O   0  0  0  0  0  0  0  0  0  0  0  0
    7.9465   -0.6528    1.5572 O   0  0  0  0  0  0  0  0  0  0  0  0
   -3.4498   -0.9146    2.3234 H   0  0  0  0  0  0  0  0  0  0  0  0
   -6.3352    0.8053   -1.3699 H   0  0  0  0  0  0  0  0  0  0  0  0
   -4.4340   -0.7034   -1.8851 H   0  0  0  0  0  0  0  0  0  0  0  0
   -3.6152   -3.6109    0.8835 H   0  0  0  0  0  0  0  0  0  0  0  0
   -1.8128   -3.7702    0.7497 H   0  0  0  0  0  0  0  0  0  0  0  0
   -3.7650   -3.1722   -1.5717 H   0  0  0  0  0  0  0  0  0  0  0  0
   -1.9616   -3.3334   -1.7113 H   0  0  0  0  0  0  0  0  0  0  0  0
   -1.6131   -0.5361   -1.9569 H   0  0  0  0  0  0  0  0  0  0  0  0
   -0.3935    0.7939   -3.4118 H   0  0  0  0  0  0  0  0  0  0  0  0
    1.6844    2.0189   -3.8914 H   0  0  0  0  0  0  0  0  0  0  0  0
    3.6828    3.0399   -3.0602 H   0  0  0  0  0  0  0  0  0  0  0  0
    4.2508    2.7651   -1.4227 H   0  0  0  0  0  0  0  0  0  0  0  0
    4.6506    1.5966   -2.7170 H   0  0  0  0  0  0  0  0  0  0  0  0
    3.7769    0.9999    3.6039 H   0  0  0  0  0  0  0  0  0  0  0  0
    2.1127    1.2208    1.7935 H   0  0  0  0  0  0  0  0  0  0  0  0
    5.0222   -0.1561   -1.0626 H   0  0  0  0  0  0  0  0  0  0  0  0
    6.0744    0.2191    3.0998 H   0  0  0  0  0  0  0  0  0  0  0  0
    8.2415   -1.0390   -0.5936 H   0  0  0  0  0  0  0  0  0  0  0  0
  1  2  1  0
  1  5  1  0
  2  3  1  0
  3  4  1  0
  2  6  1  0
  2  7  1  0
  8  5  1  0
  5  4  2  0
  4  9  1  0
  8 11  2  0
  9 10  2  0
 10 11  1  0
 11 12  1  0
 12 13  1  0
 13 14  1  0
 14 12  1  0
 12 15  1  0
 15 16  2  0
 15 17  1  0
 17 18  1  0
 19 18  2  0
 18 20  1  0
 19 23  1  0
 20 21  2  0
 21 22  1  0
 22 23  2  0
 22 24  1  0
 23 25  1  0
 27 25  1  0
 25 28  2  0
 26 27  2  0
 26 30  1  0
 28 29  1  0
 29 30  2  0
 29 31  1  0
 31 32  1  0
 31 33  2  0
  8 34  1  0
  9 35  1  0
 10 36  1  0
 13 37  1  0
 13 38  1  0
 14 39  1  0
 14 40  1  0
 17 41  1  0
 20 42  1  0
 21 43  1  0
 24 44  1  0
 24 45  1  0
 24 46  1  0
 26 47  1  0
 27 48  1  0
 28 49  1  0
 30 50  1  0
 32 51  1  0
M  END
$$$$
