
     RDKit          3D

 51 55  0  0  0  0  0  0  0  0999 V2000
    6.5828    0.6185   -1.5583 O   0  0  0  0  0  0  0  0  0  0  0  0
    6.8832   -0.3669   -2.5558 C   0  0  0  0  0  0  0  0  0  0  0  0
    6.0536   -1.5367   -2.5191 O   0  0  0  0  0  0  0  0  0  0  0  0
    5.2502   -1.2218   -1.4692 C   0  0  0  0  0  0  0  0  0  0  0  0
    5.5508    0.0027   -0.9223 C   0  0  0  0  0  0  0  0  0  0  0  0
    8.1750   -0.7514   -2.4063 F   0  0  0  0  0  0  0  0  0  0  0  0
    6.7662    0.2063   -3.7790 F   0  0  0  0  0  0  0  0  0  0  0  0
    4.8505    0.5093    0.1532 C   0  0  0  0  0  0  0  0  0  0  0  0
    4.2332   -2.0031   -0.9717 C   0  0  0  0  0  0  0  0  0  0  0  0
    3.5097   -1.5090    0.1202 C   0  0  0  0  0  0  0  0  0  0  0  0
    3.8030   -0.2517    0.7089 C   0  0  0  0  0  0  0  0  0  0  0  0
    2.9968    0.2826    1.8911 C   0  0  0  0  0  0  0  0  0  0  0  0
    3.7546    0.5259    3.1965 C   0  0  0  0  0  0  0  0  0  0  0  0
    2.7953   -0.6167    3.1102 C   0  0  0  0  0  0  0  0  0  0  0  0
    1.9004    1.2655    1.5433 C   0  0  0  0  0  0  0  0  0  0  0  0
    2.1420    2.4644    1.5565 O   0  0  0  0  0  0  0  0  0  0  0  0
    0.7138    0.6547    1.2349 N   0  0  0  0  0  0  0  0  0  0  0  0
   -0.4896    1.2431    0.8552 C   0  0  0  0  0  0  0  0  0  0  0  0
   -1.4687    0.3452    0.6240 N   0  0  0  0  0  0  0  0  0  0  0  0
   -0.6819    2.6057    0.7185 C   0  0  0  0  0  0  0  0  0  0  0  0
   -1.9381    3.0664    0.3326 C   0  0  0  0  0  0  0  0  0  0  0  0
   -2.9768    2.1617    0.0941 C   0  0  0  0  0  0  0  0  0  0  0  0
   -2.6897    0.7986    0.2327 C   0  0  0  0  0  0  0  0  0  0  0  0
   -4.3256    2.6769   -0.3147 C   0  0  0  0  0  0  0  0  0  0  0  0
   -3.6654   -0.2742   -0.0165 C   0  0  0  0  0  0  0  0  0  0  0  0
   -4.9538   -2.1816    0.7962 C   0  0  0  0  0  0  0  0  0  0  0  0
   -4.0328   -1.1546    1.0155 C   0  0  0  0  0  0  0  0  0  0  0  0
   -4.2339   -0.4679   -1.2864 C   0  0  0  0  0  0  0  0  0  0  0  0
   -5.1597   -1.4966   -1.5133 C   0  0  0  0  0  0  0  0  0  0  0  0
   -5.5201   -2.3515   -0.4663 C   0  0  0  0  0  0  0  0  0  0  0  0
   -5.7288   -1.6376   -2.8750 C   0  0  0  0  0  0  0  0  0  0  0  0
   -6.5690   -2.6815   -2.9859 O   0  0  0  0  0  0  0  0  0  0  0  0
   -5.4940   -0.9118   -3.8233 O   0  0  0  0  0  0  0  0  0  0  0  0
    5.1000    1.4856    0.5605 H   0  0  0  0  0  0  0  0  0  0  0  0
    3.9983   -2.9666   -1.4110 H   0  0  0  0  0  0  0  0  0  0  0  0
    2.6992   -2.1141    0.5232 H   0  0  0  0  0  0  0  0  0  0  0  0
    4.8140    0.2980    3.2365 H   0  0  0  0  0  0  0  0  0  0  0  0
    3.4748    1.3883    3.7930 H   0  0  0  0  0  0  0  0  0  0  0  0
    3.2131   -1.6173    3.1052 H   0  0  0  0  0  0  0  0  0  0  0  0
    1.8715   -0.5343    3.6732 H   0  0  0  0  0  0  0  0  0  0  0  0
    0.6617   -0.3532    1.2575 H   0  0  0  0  0  0  0  0  0  0  0  0
    0.1084    3.3241    0.9000 H   0  0  0  0  0  0  0  0  0  0  0  0
   -2.0978    4.1369    0.2244 H   0  0  0  0  0  0  0  0  0  0  0  0
   -4.4367    3.7365   -0.0591 H   0  0  0  0  0  0  0  0  0  0  0  0
   -5.1262    2.1427    0.2069 H   0  0  0  0  0  0  0  0  0  0  0  0
   -4.4603    2.5742   -1.3956 H   0  0  0  0  0  0  0  0  0  0  0  0
   -5.2255   -2.8497    1.6098 H   0  0  0  0  0  0  0  0  0  0  0  0
   -3.5914   -1.0377    2.0044 H   0  0  0  0  0  0  0  0  0  0  0  0
   -3.9437    0.1809   -2.1121 H   0  0  0  0  0  0  0  0  0  0  0  0
   -6.2354   -3.1549   -0.6248 H   0  0  0  0  0  0  0  0  0  0  0  0
   -6.8572   -2.6521   -3.9224 H   0  0  0  0  0  0  0  0  0  0  0  0
  1  2  1  0
  1  5  1  0
  2  3  1  0
  3  4  1  0
  2  6  1  0
  2  7  1  0
  8  5  1  0
  5  4  2  0
  4  9  1  0
  8 11  2  0
  9 10  2  0
 10 11  1  0
 11 12  1  0
 12 13  1  0
 13 14  1  0
 14 12  1  0
 12 15  1  0
 15 16  2  0
 15 17  1  0
 17 18  1  0
 19 18  2  0
 18 20  1  0
 19 23  1  0
 20 21  2  0
 21 22  1  0
 22 23  2  0
 22 24  1  0
 23 25  1  0
 27 25  1  0
 25 28  2  0
 26 27  2  0
 26 30  1  0
 28 29  1  0
 29 30  2  0
 29 31  1  0
 31 32  1  0
 31 33  2  0
  8 34  1  0
  9 35  1  0
 10 36  1  0
 13 37  1  0
 13 38  1  0
 14 39  1  0
 14 40  1  0
 17 41  1  0
 20 42  1  0
 21 43  1  0
 24 44  1  0
 24 45  1  0
 24 46  1  0
 26 47  1  0
 27 48  1  0
 28 49  1  0
 30 50  1  0
 32 51  1  0
M  END
$$$$
