
     RDKit          3D

 43 45  0  0  0  0  0  0  0  0999 V2000
   -4.4275    0.1305   -1.7195 C   0  0  0  0  0  0  0  0  0  0  0  0
   -3.4204    0.0342   -2.6836 C   0  0  0  0  0  0  0  0  0  0  0  0
   -2.1323    0.4916   -2.3953 C   0  0  0  0  0  0  0  0  0  0  0  0
   -1.8444    1.0416   -1.1422 C   0  0  0  0  0  0  0  0  0  0  0  0
   -2.8494    1.1303   -0.1587 C   0  0  0  0  0  0  0  0  0  0  0  0
   -4.1452    0.6775   -0.4641 C   0  0  0  0  0  0  0  0  0  0  0  0
   -2.5492    1.6936    1.2139 C   0  0  0  0  0  0  0  0  0  0  0  0
   -2.3224    0.6041    2.2927 C   0  0  1  0  0  0  0  0  0  0  0  0
   -3.5246   -0.2193    2.4465 N   0  0  0  0  0  0  0  0  0  0  0  0
   -1.1066   -0.3004    1.9819 C   0  0  0  0  0  0  0  0  0  0  0  0
    0.2088    0.4463    1.9871 C   0  0  0  0  0  0  0  0  0  0  0  0
    0.3873    1.3582    2.8412 O   0  0  0  0  0  0  0  0  0  0  0  0
    1.2820    0.1077    1.0803 N   0  0  0  0  0  0  0  0  0  0  0  0
    2.2722    1.1642    0.7774 C   0  0  0  0  0  0  0  0  0  0  0  0
    1.2633   -1.1803    0.3502 C   0  0  0  0  0  0  0  0  0  0  0  0
    2.6758   -1.6823    0.0261 C   0  0  0  0  0  0  0  0  0  0  0  0
    3.4616   -0.5882   -0.5216 N   0  0  0  0  0  0  0  0  0  0  0  0
    3.3163    0.6949   -0.1826 C   0  0  0  0  0  0  0  0  0  0  0  0
    4.5585   -0.5914   -1.3013 C   0  0  0  0  0  0  0  0  0  0  0  0
    5.0459    0.6588   -1.4492 N   0  0  0  0  0  0  0  0  0  0  0  0
    4.2679    1.4678   -0.7397 N   0  0  0  0  0  0  0  0  0  0  0  0
   -5.6804   -0.3063   -1.9997 F   0  0  0  0  0  0  0  0  0  0  0  0
   -3.6926   -0.4971   -3.9012 F   0  0  0  0  0  0  0  0  0  0  0  0
   -0.5906    1.4955   -0.8971 F   0  0  0  0  0  0  0  0  0  0  0  0
    5.1720   -1.8104   -1.9189 C   0  0  0  0  0  0  0  0  0  0  0  0
    6.3346   -1.4729   -2.5881 F   0  0  0  0  0  0  0  0  0  0  0  0
    5.4720   -2.7314   -0.9326 F   0  0  0  0  0  0  0  0  0  0  0  0
    4.2828   -2.3719   -2.8158 F   0  0  0  0  0  0  0  0  0  0  0  0
   -1.3551    0.4229   -3.1456 H   0  0  0  0  0  0  0  0  0  0  0  0
   -4.9378    0.7497    0.2698 H   0  0  0  0  0  0  0  0  0  0  0  0
   -3.3963    2.3411    1.5296 H   0  0  0  0  0  0  0  0  0  0  0  0
   -1.6645    2.3644    1.1715 H   0  0  0  0  0  0  0  0  0  0  0  0
   -2.1351    1.1225    3.2611 H   0  0  0  0  0  0  0  0  0  0  0  0
   -4.3128    0.4006    2.7448 H   0  0  0  0  0  0  0  0  0  0  0  0
   -3.3736   -0.8846    3.2395 H   0  0  0  0  0  0  0  0  0  0  0  0
   -1.0378   -1.0997    2.7507 H   0  0  0  0  0  0  0  0  0  0  0  0
   -1.2761   -0.7968    1.0044 H   0  0  0  0  0  0  0  0  0  0  0  0
    1.7556    2.0481    0.3465 H   0  0  0  0  0  0  0  0  0  0  0  0
    2.7825    1.4714    1.7151 H   0  0  0  0  0  0  0  0  0  0  0  0
    0.7644   -1.9659    0.9576 H   0  0  0  0  0  0  0  0  0  0  0  0
    0.6939   -1.0508   -0.5955 H   0  0  0  0  0  0  0  0  0  0  0  0
    2.6136   -2.5169   -0.7043 H   0  0  0  0  0  0  0  0  0  0  0  0
    3.1636   -2.0510    0.9541 H   0  0  0  0  0  0  0  0  0  0  0  0
  1  2  2  0
  2  3  1  0
  3  4  2  0
  4  5  1  0
  5  6  2  0
  1  6  1  0
  7  8  1  0
  8  9  1  0
  5  7  1  0
 10 11  1  0
 11 12  2  0
  8 10  1  0
 13 14  1  0
 11 13  1  0
 15 16  1  0
 16 17  1  0
 17 18  1  0
 14 18  1  0
 13 15  1  0
 19 20  2  0
 20 21  1  0
 17 19  1  0
 18 21  2  0
  1 22  1  0
  2 23  1  0
  4 24  1  0
 19 25  1  0
 25 26  1  0
 25 27  1  0
 25 28  1  0
  3 29  1  0
  6 30  1  0
  7 31  1  0
  7 32  1  0
  8 33  1  1
  9 34  1  0
  9 35  1  0
 10 36  1  0
 10 37  1  0
 14 38  1  0
 14 39  1  0
 15 40  1  0
 15 41  1  0
 16 42  1  0
 16 43  1  0
M  END
$$$$
