
     RDKit          3D

 36 37  0  0  0  0  0  0  0  0999 V2000
   -0.6360   -0.9129    0.3174 C   0  0  0  0  0  0  0  0  0  0  0  0
   -1.4719    0.0362   -0.3447 C   0  0  0  0  0  0  0  0  0  0  0  0
    0.6288   -0.9034    0.3301 C   0  0  0  0  0  0  0  0  0  0  0  0
   -2.8617   -0.1904   -0.2108 O   0  0  0  0  0  0  0  0  0  0  0  0
   -1.1729    1.0270   -1.0181 O   0  0  0  0  0  0  0  0  0  0  0  0
    1.5081    0.0244   -0.2914 C   0  0  0  0  0  0  0  0  0  0  0  0
    1.2420    1.1291   -1.0513 O   0  0  0  0  0  0  0  0  0  0  0  0
    2.7636   -0.2099   -0.1119 O   0  0  0  0  0  0  0  0  0  0  0  0
   -5.4991   -1.0976   -0.3135 C   0  0  0  0  0  0  0  0  0  0  0  0
   -6.2811    0.0200   -0.1200 C   0  0  0  0  0  0  0  0  0  0  0  0
   -5.7658    1.2888   -0.1795 C   0  0  0  0  0  0  0  0  0  0  0  0
   -4.4331    1.4843   -0.4378 C   0  0  0  0  0  0  0  0  0  0  0  0
   -3.6238    0.3712   -0.6376 C   0  0  0  0  0  0  0  0  0  0  0  0
   -4.1522   -0.9030   -0.5753 C   0  0  0  0  0  0  0  0  0  0  0  0
   -2.1912    0.6490   -0.9243 C   0  0  0  0  0  0  0  0  0  0  0  0
   -1.3896    1.0638    0.2378 C   0  0  1  0  0  0  0  0  0  0  0  0
   -1.7805    2.2409    0.9296 N   0  0  0  0  0  0  0  0  0  0  0  0
   -0.9744   -0.1002    1.0914 C   0  0  0  0  0  0  0  0  0  0  0  0
   -0.1661   -0.9847    0.1765 C   0  0  0  0  0  0  0  0  0  0  0  0
   -0.5675   -2.1239   -0.1700 O   0  0  0  0  0  0  0  0  0  0  0  0
    1.0780   -0.4303   -0.2635 N   0  0  0  0  0  0  0  0  0  0  0  0
    1.5310    0.8901    0.1251 C   0  0  0  0  0  0  0  0  0  0  0  0
    1.9655   -1.1827   -1.1470 C   0  0  0  0  0  0  0  0  0  0  0  0
    3.2828   -1.4663   -0.4663 C   0  0  0  0  0  0  0  0  0  0  0  0
    3.7422   -0.2640    0.1663 N   0  0  0  0  0  0  0  0  0  0  0  0
    2.9781    0.8072    0.4415 C   0  0  0  0  0  0  0  0  0  0  0  0
    4.9790    0.0496    0.6035 C   0  0  0  0  0  0  0  0  0  0  0  0
    4.9595    1.3025    1.1388 N   0  0  0  0  0  0  0  0  0  0  0  0
    3.7313    1.7720    1.0412 N   0  0  0  0  0  0  0  0  0  0  0  0
   -5.9695   -2.3469   -0.2631 F   0  0  0  0  0  0  0  0  0  0  0  0
   -7.6053   -0.1227    0.1366 F   0  0  0  0  0  0  0  0  0  0  0  0
   -3.9482    2.7483   -0.4902 F   0  0  0  0  0  0  0  0  0  0  0  0
    6.2270   -0.7533    0.5678 C   0  0  0  0  0  0  0  0  0  0  0  0
    6.4447   -1.2519    1.8375 F   0  0  0  0  0  0  0  0  0  0  0  0
    6.1816   -1.7753   -0.3684 F   0  0  0  0  0  0  0  0  0  0  0  0
    7.2465    0.1151    0.2098 F   0  0  0  0  0  0  0  0  0  0  0  0
  1  2  1  0
  1  3  2  0
  2  4  1  0
  2  5  2  0
  3  6  1  0
  6  7  1  0
  6  8  2  0
  9 10  2  0
 10 11  1  0
 11 12  2  0
 12 13  1  0
 13 14  2  0
  9 14  1  0
 15 16  1  0
 16 17  1  1
 13 15  1  0
 18 19  1  0
 19 20  2  0
 16 18  1  0
 21 22  1  0
 19 21  1  0
 23 24  1  0
 24 25  1  0
 25 26  1  0
 22 26  1  0
 21 23  1  0
 27 28  2  0
 28 29  1  0
 25 27  1  0
 26 29  2  0
  9 30  1  0
 10 31  1  0
 12 32  1  0
 27 33  1  0
 33 34  1  0
 33 35  1  0
 33 36  1  0
M  END
