
     RDKit          3D

 43 45  0  0  0  0  0  0  0  0999 V2000
    5.2508    1.6458   -0.7224 C   0  0  0  0  0  0  0  0  0  0  0  0
    5.6218    1.7208    0.6234 C   0  0  0  0  0  0  0  0  0  0  0  0
    4.7491    1.2647    1.6150 C   0  0  0  0  0  0  0  0  0  0  0  0
    3.5024    0.7346    1.2667 C   0  0  0  0  0  0  0  0  0  0  0  0
    3.1183    0.6626   -0.0864 C   0  0  0  0  0  0  0  0  0  0  0  0
    4.0060    1.1168   -1.0768 C   0  0  0  0  0  0  0  0  0  0  0  0
    1.7894    0.0703   -0.4871 C   0  0  0  0  0  0  0  0  0  0  0  0
    1.9327   -1.3951   -0.9617 C   0  0  1  0  0  0  0  0  0  0  0  0
    2.4101   -2.2758    0.1106 N   0  0  0  0  0  0  0  0  0  0  0  0
    0.6177   -1.9407   -1.5549 C   0  0  0  0  0  0  0  0  0  0  0  0
   -0.4909   -2.0422   -0.5341 C   0  0  0  0  0  0  0  0  0  0  0  0
   -0.5525   -3.0766    0.1850 O   0  0  0  0  0  0  0  0  0  0  0  0
   -1.4385   -0.9747   -0.3254 N   0  0  0  0  0  0  0  0  0  0  0  0
   -1.8286   -0.0909   -1.4400 C   0  0  0  0  0  0  0  0  0  0  0  0
   -1.8684   -0.6482    1.0477 C   0  0  0  0  0  0  0  0  0  0  0  0
   -3.3869   -0.4441    1.1027 C   0  0  0  0  0  0  0  0  0  0  0  0
   -3.8024    0.4128   -0.0026 N   0  0  0  0  0  0  0  0  0  0  0  0
   -3.1508    0.5533   -1.1644 C   0  0  0  0  0  0  0  0  0  0  0  0
   -4.9366    1.1136   -0.1887 C   0  0  0  0  0  0  0  0  0  0  0  0
   -4.9537    1.6869   -1.4109 N   0  0  0  0  0  0  0  0  0  0  0  0
   -3.8308    1.3339   -2.0252 N   0  0  0  0  0  0  0  0  0  0  0  0
    6.0983    2.0835   -1.6864 F   0  0  0  0  0  0  0  0  0  0  0  0
    6.8290    2.2330    0.9685 F   0  0  0  0  0  0  0  0  0  0  0  0
    2.6758    0.2910    2.2476 F   0  0  0  0  0  0  0  0  0  0  0  0
   -6.0359    1.2540    0.8191 C   0  0  0  0  0  0  0  0  0  0  0  0
   -6.4718    0.0021    1.2114 F   0  0  0  0  0  0  0  0  0  0  0  0
   -7.0990    1.9493    0.2720 F   0  0  0  0  0  0  0  0  0  0  0  0
   -5.5669    1.9427    1.9219 F   0  0  0  0  0  0  0  0  0  0  0  0
    5.0401    1.3198    2.6563 H   0  0  0  0  0  0  0  0  0  0  0  0
    3.7323    1.0588   -2.1233 H   0  0  0  0  0  0  0  0  0  0  0  0
    1.3678    0.6823   -1.3137 H   0  0  0  0  0  0  0  0  0  0  0  0
    1.0681    0.1349    0.3550 H   0  0  0  0  0  0  0  0  0  0  0  0
    2.6805   -1.4163   -1.7870 H   0  0  0  0  0  0  0  0  0  0  0  0
    3.4167   -2.0647    0.2996 H   0  0  0  0  0  0  0  0  0  0  0  0
    1.8806   -2.0809    0.9914 H   0  0  0  0  0  0  0  0  0  0  0  0
    0.8095   -2.9544   -1.9697 H   0  0  0  0  0  0  0  0  0  0  0  0
    0.3150   -1.3102   -2.4155 H   0  0  0  0  0  0  0  0  0  0  0  0
   -1.0604    0.6969   -1.5808 H   0  0  0  0  0  0  0  0  0  0  0  0
   -1.9293   -0.6821   -2.3751 H   0  0  0  0  0  0  0  0  0  0  0  0
   -1.5857   -1.4471    1.7666 H   0  0  0  0  0  0  0  0  0  0  0  0
   -1.3619    0.2878    1.3687 H   0  0  0  0  0  0  0  0  0  0  0  0
   -3.8967   -1.4272    1.0125 H   0  0  0  0  0  0  0  0  0  0  0  0
   -3.6643    0.0190    2.0735 H   0  0  0  0  0  0  0  0  0  0  0  0
  1  2  2  0
  2  3  1  0
  3  4  2  0
  4  5  1  0
  5  6  2  0
  1  6  1  0
  7  8  1  0
  8  9  1  0
  5  7  1  0
 10 11  1  0
 11 12  2  0
  8 10  1  0
 13 14  1  0
 11 13  1  0
 15 16  1  0
 16 17  1  0
 17 18  1  0
 14 18  1  0
 13 15  1  0
 19 20  2  0
 20 21  1  0
 17 19  1  0
 18 21  2  0
  1 22  1  0
  2 23  1  0
  4 24  1  0
 19 25  1  0
 25 26  1  0
 25 27  1  0
 25 28  1  0
  3 29  1  0
  6 30  1  0
  7 31  1  0
  7 32  1  0
  8 33  1  6
  9 34  1  0
  9 35  1  0
 10 36  1  0
 10 37  1  0
 14 38  1  0
 14 39  1  0
 15 40  1  0
 15 41  1  0
 16 42  1  0
 16 43  1  0
M  END
$$$$
