
     RDKit          3D

 43 45  0  0  0  0  0  0  0  0999 V2000
    4.4380   -0.5736    2.8097 C   0  0  0  0  0  0  0  0  0  0  0  0
    5.6867   -0.8133    2.2297 C   0  0  0  0  0  0  0  0  0  0  0  0
    5.8939   -0.5306    0.8772 C   0  0  0  0  0  0  0  0  0  0  0  0
    4.8539   -0.0120    0.0989 C   0  0  0  0  0  0  0  0  0  0  0  0
    3.5889    0.2238    0.6726 C   0  0  0  0  0  0  0  0  0  0  0  0
    3.3947   -0.0551    2.0367 C   0  0  0  0  0  0  0  0  0  0  0  0
    2.4513    0.7728   -0.1601 C   0  0  0  0  0  0  0  0  0  0  0  0
    1.6323   -0.3134   -0.8978 C   0  0  1  0  0  0  0  0  0  0  0  0
    2.5009   -1.1076   -1.7714 N   0  0  0  0  0  0  0  0  0  0  0  0
    0.8233   -1.2279    0.0526 C   0  0  0  0  0  0  0  0  0  0  0  0
   -0.2805   -0.4736    0.7495 C   0  0  0  0  0  0  0  0  0  0  0  0
   -0.1448   -0.1936    1.9712 O   0  0  0  0  0  0  0  0  0  0  0  0
   -1.4571   -0.0290    0.0434 N   0  0  0  0  0  0  0  0  0  0  0  0
   -1.9483   -0.7789   -1.1289 C   0  0  0  0  0  0  0  0  0  0  0  0
   -2.0243    1.2970    0.3546 C   0  0  0  0  0  0  0  0  0  0  0  0
   -3.5546    1.2296    0.4195 C   0  0  0  0  0  0  0  0  0  0  0  0
   -4.0577    0.4891   -0.7321 N   0  0  0  0  0  0  0  0  0  0  0  0
   -3.3787   -0.4432   -1.4125 C   0  0  0  0  0  0  0  0  0  0  0  0
   -5.2893    0.4424   -1.2734 C   0  0  0  0  0  0  0  0  0  0  0  0
   -5.3429   -0.4654   -2.2712 N   0  0  0  0  0  0  0  0  0  0  0  0
   -4.1414   -1.0234   -2.3582 N   0  0  0  0  0  0  0  0  0  0  0  0
    4.2363   -0.8419    4.1236 F   0  0  0  0  0  0  0  0  0  0  0  0
    6.6995   -1.3159    2.9784 F   0  0  0  0  0  0  0  0  0  0  0  0
    5.0828    0.2624   -1.2105 F   0  0  0  0  0  0  0  0  0  0  0  0
   -6.4509    1.2841   -0.8418 C   0  0  0  0  0  0  0  0  0  0  0  0
   -6.1799    2.6143   -1.1017 F   0  0  0  0  0  0  0  0  0  0  0  0
   -6.6703    1.1169    0.5128 F   0  0  0  0  0  0  0  0  0  0  0  0
   -7.5914    0.9131   -1.5311 F   0  0  0  0  0  0  0  0  0  0  0  0
    6.8632   -0.7123    0.4307 H   0  0  0  0  0  0  0  0  0  0  0  0
    2.4365    0.1310    2.5028 H   0  0  0  0  0  0  0  0  0  0  0  0
    2.8595    1.4813   -0.9136 H   0  0  0  0  0  0  0  0  0  0  0  0
    1.7743    1.3792    0.4802 H   0  0  0  0  0  0  0  0  0  0  0  0
    0.9104    0.2278   -1.5494 H   0  0  0  0  0  0  0  0  0  0  0  0
    1.8997   -1.6488   -2.4349 H   0  0  0  0  0  0  0  0  0  0  0  0
    3.0271   -1.8078   -1.1991 H   0  0  0  0  0  0  0  0  0  0  0  0
    0.3851   -2.0675   -0.5250 H   0  0  0  0  0  0  0  0  0  0  0  0
    1.4971   -1.6925    0.8036 H   0  0  0  0  0  0  0  0  0  0  0  0
   -1.8927   -1.8701   -0.9297 H   0  0  0  0  0  0  0  0  0  0  0  0
   -1.3316   -0.5351   -2.0187 H   0  0  0  0  0  0  0  0  0  0  0  0
   -1.7222    2.0111   -0.4419 H   0  0  0  0  0  0  0  0  0  0  0  0
   -1.6420    1.6888    1.3217 H   0  0  0  0  0  0  0  0  0  0  0  0
   -3.8640    0.7083    1.3508 H   0  0  0  0  0  0  0  0  0  0  0  0
   -3.9713    2.2592    0.4265 H   0  0  0  0  0  0  0  0  0  0  0  0
  1  2  2  0
  2  3  1  0
  3  4  2  0
  4  5  1  0
  5  6  2  0
  1  6  1  0
  7  8  1  0
  8  9  1  0
  5  7  1  0
 10 11  1  0
 11 12  2  0
  8 10  1  0
 13 14  1  0
 11 13  1  0
 15 16  1  0
 16 17  1  0
 17 18  1  0
 14 18  1  0
 13 15  1  0
 19 20  2  0
 20 21  1  0
 17 19  1  0
 18 21  2  0
  1 22  1  0
  2 23  1  0
  4 24  1  0
 19 25  1  0
 25 26  1  0
 25 27  1  0
 25 28  1  0
  3 29  1  0
  6 30  1  0
  7 31  1  0
  7 32  1  0
  8 33  1  6
  9 34  1  0
  9 35  1  0
 10 36  1  0
 10 37  1  0
 14 38  1  0
 14 39  1  0
 15 40  1  0
 15 41  1  0
 16 42  1  0
 16 43  1  0
M  END
$$$$
