
     RDKit          3D

 43 45  0  0  0  0  0  0  0  0999 V2000
    4.3619    2.5875   -0.5772 C   0  0  0  0  0  0  0  0  0  0  0  0
    4.9979    2.2370   -1.7711 C   0  0  0  0  0  0  0  0  0  0  0  0
    4.5146    1.1702   -2.5335 C   0  0  0  0  0  0  0  0  0  0  0  0
    3.3970    0.4469   -2.1037 C   0  0  0  0  0  0  0  0  0  0  0  0
    2.7504    0.7908   -0.9013 C   0  0  0  0  0  0  0  0  0  0  0  0
    3.2435    1.8668   -0.1419 C   0  0  0  0  0  0  0  0  0  0  0  0
    1.5675   -0.0058   -0.4071 C   0  0  0  0  0  0  0  0  0  0  0  0
    2.0046   -1.3041    0.3098 C   0  0  1  0  0  0  0  0  0  0  0  0
    2.6849   -0.9947    1.5733 N   0  0  0  0  0  0  0  0  0  0  0  0
    0.7965   -2.2357    0.5581 C   0  0  0  0  0  0  0  0  0  0  0  0
   -0.2410   -1.6131    1.4553 C   0  0  0  0  0  0  0  0  0  0  0  0
    0.0108   -1.4559    2.6822 O   0  0  0  0  0  0  0  0  0  0  0  0
   -1.4850   -1.1383    0.9163 N   0  0  0  0  0  0  0  0  0  0  0  0
   -2.4307   -2.1084    0.3360 C   0  0  0  0  0  0  0  0  0  0  0  0
   -1.9653    0.1971    1.3056 C   0  0  0  0  0  0  0  0  0  0  0  0
   -2.6551    0.8786    0.1144 C   0  0  0  0  0  0  0  0  0  0  0  0
   -3.5695   -0.0650   -0.5246 N   0  0  0  0  0  0  0  0  0  0  0  0
   -3.4635   -1.3999   -0.4845 C   0  0  0  0  0  0  0  0  0  0  0  0
   -4.6001    0.1452   -1.3675 C   0  0  0  0  0  0  0  0  0  0  0  0
   -5.1209   -1.0254   -1.7936 N   0  0  0  0  0  0  0  0  0  0  0  0
   -4.4077   -1.9978   -1.2359 N   0  0  0  0  0  0  0  0  0  0  0  0
    4.8318    3.6241    0.1629 F   0  0  0  0  0  0  0  0  0  0  0  0
    6.0898    2.9262   -2.1873 F   0  0  0  0  0  0  0  0  0  0  0  0
    2.9486   -0.5883   -2.8565 F   0  0  0  0  0  0  0  0  0  0  0  0
   -5.1083    1.4899   -1.7860 C   0  0  0  0  0  0  0  0  0  0  0  0
   -5.5758    2.1741   -0.6794 F   0  0  0  0  0  0  0  0  0  0  0  0
   -4.0852    2.2112   -2.3727 F   0  0  0  0  0  0  0  0  0  0  0  0
   -6.1399    1.3474   -2.6967 F   0  0  0  0  0  0  0  0  0  0  0  0
    5.0098    0.9017   -3.4582 H   0  0  0  0  0  0  0  0  0  0  0  0
    2.7664    2.1424    0.7902 H   0  0  0  0  0  0  0  0  0  0  0  0
    0.9556    0.6162    0.2804 H   0  0  0  0  0  0  0  0  0  0  0  0
    0.9155   -0.2551   -1.2735 H   0  0  0  0  0  0  0  0  0  0  0  0
    2.7104   -1.8558   -0.3532 H   0  0  0  0  0  0  0  0  0  0  0  0
    3.5971   -0.5336    1.3559 H   0  0  0  0  0  0  0  0  0  0  0  0
    2.9367   -1.8942    2.0443 H   0  0  0  0  0  0  0  0  0  0  0  0
    0.3491   -2.5025   -0.4222 H   0  0  0  0  0  0  0  0  0  0  0  0
    1.1463   -3.1846    1.0195 H   0  0  0  0  0  0  0  0  0  0  0  0
   -2.9337   -2.6667    1.1555 H   0  0  0  0  0  0  0  0  0  0  0  0
   -1.9008   -2.8321   -0.3161 H   0  0  0  0  0  0  0  0  0  0  0  0
   -1.1215    0.8373    1.6476 H   0  0  0  0  0  0  0  0  0  0  0  0
   -2.6875    0.0939    2.1455 H   0  0  0  0  0  0  0  0  0  0  0  0
   -3.2098    1.7745    0.4670 H   0  0  0  0  0  0  0  0  0  0  0  0
   -1.8857    1.1977   -0.6246 H   0  0  0  0  0  0  0  0  0  0  0  0
  1  2  2  0
  2  3  1  0
  3  4  2  0
  4  5  1  0
  5  6  2  0
  1  6  1  0
  7  8  1  0
  8  9  1  0
  5  7  1  0
 10 11  1  0
 11 12  2  0
  8 10  1  0
 13 14  1  0
 11 13  1  0
 15 16  1  0
 16 17  1  0
 17 18  1  0
 14 18  1  0
 13 15  1  0
 19 20  2  0
 20 21  1  0
 17 19  1  0
 18 21  2  0
  1 22  1  0
  2 23  1  0
  4 24  1  0
 19 25  1  0
 25 26  1  0
 25 27  1  0
 25 28  1  0
  3 29  1  0
  6 30  1  0
  7 31  1  0
  7 32  1  0
  8 33  1  6
  9 34  1  0
  9 35  1  0
 10 36  1  0
 10 37  1  0
 14 38  1  0
 14 39  1  0
 15 40  1  0
 15 41  1  0
 16 42  1  0
 16 43  1  0
M  END
$$$$
