
     RDKit          3D

 43 45  0  0  0  0  0  0  0  0999 V2000
   -5.6492   -2.0391   -0.5167 C   0  0  0  0  0  0  0  0  0  0  0  0
   -6.6086   -1.0695   -0.2100 C   0  0  0  0  0  0  0  0  0  0  0  0
   -6.2832    0.2869   -0.2963 C   0  0  0  0  0  0  0  0  0  0  0  0
   -4.9998    0.6791   -0.6908 C   0  0  0  0  0  0  0  0  0  0  0  0
   -4.0306   -0.2909   -1.0081 C   0  0  0  0  0  0  0  0  0  0  0  0
   -4.3648   -1.6529   -0.9121 C   0  0  0  0  0  0  0  0  0  0  0  0
   -2.6351    0.1196   -1.4096 C   0  0  0  0  0  0  0  0  0  0  0  0
   -1.7661    0.4874   -0.1850 C   0  0  1  0  0  0  0  0  0  0  0  0
   -1.5527   -0.6708    0.6904 N   0  0  0  0  0  0  0  0  0  0  0  0
   -0.4062    1.0459   -0.6467 C   0  0  0  0  0  0  0  0  0  0  0  0
    0.4637    1.4708    0.5096 C   0  0  0  0  0  0  0  0  0  0  0  0
   -0.0561    2.0779    1.4861 O   0  0  0  0  0  0  0  0  0  0  0  0
    1.8802    1.2125    0.5077 N   0  0  0  0  0  0  0  0  0  0  0  0
    2.5786    1.0525    1.7939 C   0  0  0  0  0  0  0  0  0  0  0  0
    2.6808    1.3983   -0.7168 C   0  0  0  0  0  0  0  0  0  0  0  0
    3.6638    0.2326   -0.8874 C   0  0  0  0  0  0  0  0  0  0  0  0
    4.3156   -0.0516    0.3891 N   0  0  0  0  0  0  0  0  0  0  0  0
    3.8277    0.2521    1.6001 C   0  0  0  0  0  0  0  0  0  0  0  0
    5.4198   -0.7705    0.6653 C   0  0  0  0  0  0  0  0  0  0  0  0
    5.6121   -0.8664    1.9983 N   0  0  0  0  0  0  0  0  0  0  0  0
    4.6115   -0.2219    2.5866 N   0  0  0  0  0  0  0  0  0  0  0  0
   -5.9614   -3.3558   -0.4283 F   0  0  0  0  0  0  0  0  0  0  0  0
   -7.8542   -1.4429    0.1745 F   0  0  0  0  0  0  0  0  0  0  0  0
   -4.7030    2.0016   -0.7625 F   0  0  0  0  0  0  0  0  0  0  0  0
    6.3279   -1.3789   -0.3590 C   0  0  0  0  0  0  0  0  0  0  0  0
    5.5980   -2.1935   -1.2045 F   0  0  0  0  0  0  0  0  0  0  0  0
    7.3066   -2.1353    0.2600 F   0  0  0  0  0  0  0  0  0  0  0  0
    6.9311   -0.3769   -1.0955 F   0  0  0  0  0  0  0  0  0  0  0  0
   -7.0264    1.0362   -0.0552 H   0  0  0  0  0  0  0  0  0  0  0  0
   -3.6289   -2.4145   -1.1392 H   0  0  0  0  0  0  0  0  0  0  0  0
   -2.7038    0.9947   -2.0925 H   0  0  0  0  0  0  0  0  0  0  0  0
   -2.1462   -0.6939   -1.9902 H   0  0  0  0  0  0  0  0  0  0  0  0
   -2.2907    1.2829    0.3911 H   0  0  0  0  0  0  0  0  0  0  0  0
   -1.2404   -1.4905    0.1200 H   0  0  0  0  0  0  0  0  0  0  0  0
   -2.4568   -0.9251    1.1497 H   0  0  0  0  0  0  0  0  0  0  0  0
   -0.5651    1.9277   -1.3042 H   0  0  0  0  0  0  0  0  0  0  0  0
    0.1150    0.2606   -1.2364 H   0  0  0  0  0  0  0  0  0  0  0  0
    1.9268    0.5211    2.5207 H   0  0  0  0  0  0  0  0  0  0  0  0
    2.8405    2.0520    2.2011 H   0  0  0  0  0  0  0  0  0  0  0  0
    2.0454    1.4768   -1.6231 H   0  0  0  0  0  0  0  0  0  0  0  0
    3.2520    2.3480   -0.6303 H   0  0  0  0  0  0  0  0  0  0  0  0
    4.4222    0.4951   -1.6554 H   0  0  0  0  0  0  0  0  0  0  0  0
    3.1100   -0.6710   -1.2214 H   0  0  0  0  0  0  0  0  0  0  0  0
  1  2  2  0
  2  3  1  0
  3  4  2  0
  4  5  1  0
  5  6  2  0
  1  6  1  0
  7  8  1  0
  8  9  1  0
  5  7  1  0
 10 11  1  0
 11 12  2  0
  8 10  1  0
 13 14  1  0
 11 13  1  0
 15 16  1  0
 16 17  1  0
 17 18  1  0
 14 18  1  0
 13 15  1  0
 19 20  2  0
 20 21  1  0
 17 19  1  0
 18 21  2  0
  1 22  1  0
  2 23  1  0
  4 24  1  0
 19 25  1  0
 25 26  1  0
 25 27  1  0
 25 28  1  0
  3 29  1  0
  6 30  1  0
  7 31  1  0
  7 32  1  0
  8 33  1  1
  9 34  1  0
  9 35  1  0
 10 36  1  0
 10 37  1  0
 14 38  1  0
 14 39  1  0
 15 40  1  0
 15 41  1  0
 16 42  1  0
 16 43  1  0
M  END
$$$$
