
     RDKit          3D

 39 41  0  0  0  0  0  0  0  0999 V2000
    7.0469   -0.9689    1.8467 C   0  0  0  0  0  0  0  0  0  0  0  0
    7.5837   -0.1034    0.9241 C   0  0  0  0  0  0  0  0  0  0  0  0
    7.6658   -0.4550   -0.3954 C   0  0  0  0  0  0  0  0  0  0  0  0
    7.1860   -1.7108   -0.7463 C   0  0  0  0  0  0  0  0  0  0  0  0
    6.6429   -2.5961    0.1638 C   0  0  0  0  0  0  0  0  0  0  0  0
    6.5669   -2.2241    1.4988 C   0  0  0  0  0  0  0  0  0  0  0  0
    6.1268   -3.9326   -0.1867 C   0  0  0  0  0  0  0  0  0  0  0  0
    4.6562   -3.7694   -0.5182 C   0  0  0  0  0  0  0  0  0  0  0  0
    4.0008   -3.2126    0.7247 C   0  0  0  0  0  0  0  0  0  0  0  0
    2.5460   -3.0278    0.4693 C   0  0  0  0  0  0  0  0  0  0  0  0
    2.0875   -3.3337   -0.6525 O   0  0  0  0  0  0  0  0  0  0  0  0
    1.7795   -2.5263    1.4907 O   0  0  0  0  0  0  0  0  0  0  0  0
    0.4097   -2.2827    1.4513 C   0  0  0  0  0  0  0  0  0  0  0  0
   -0.0770   -1.3235    0.4412 C   0  0  0  0  0  0  0  0  0  0  0  0
   -0.3558   -1.8919   -0.9020 C   0  0  0  0  0  0  0  0  0  0  0  0
   -1.3283   -1.1572   -1.6249 O   0  0  0  0  0  0  0  0  0  0  0  0
   -2.6097   -1.0444   -1.0482 C   0  0  0  0  0  0  0  0  0  0  0  0
   -2.7659   -1.6049    0.0465 O   0  0  0  0  0  0  0  0  0  0  0  0
   -3.6290   -0.2812   -1.7896 C   0  0  0  0  0  0  0  0  0  0  0  0
   -4.5974   -1.1299   -2.5583 C   0  0  0  0  0  0  0  0  0  0  0  0
   -5.4079   -2.0650   -1.7365 C   0  0  0  0  0  0  0  0  0  0  0  0
   -6.2709   -1.4282   -0.7255 C   0  0  0  0  0  0  0  0  0  0  0  0
   -8.4597   -0.4811   -0.3015 C   0  0  0  0  0  0  0  0  0  0  0  0
   -7.5555   -1.0724   -1.1344 C   0  0  0  0  0  0  0  0  0  0  0  0
   -5.9088   -1.1693    0.5722 C   0  0  0  0  0  0  0  0  0  0  0  0
   -6.8260   -0.5723    1.4081 C   0  0  0  0  0  0  0  0  0  0  0  0
   -8.0837   -0.2205    1.0185 C   0  0  0  0  0  0  0  0  0  0  0  0
    0.4050   -0.0271    0.4876 O   0  0  0  0  0  0  0  0  0  0  0  0
   -0.2911    0.9158    1.2565 C   0  0  0  0  0  0  0  0  0  0  0  0
   -1.3315    0.6262    1.9014 O   0  0  0  0  0  0  0  0  0  0  0  0
    0.2896    2.2946    1.2574 C   0  0  0  0  0  0  0  0  0  0  0  0
   -0.5649    3.1937    2.1089 C   0  0  0  0  0  0  0  0  0  0  0  0
   -0.0194    4.6125    2.1490 C   0  0  0  0  0  0  0  0  0  0  0  0
    0.0266    5.1859    0.7620 C   0  0  0  0  0  0  0  0  0  0  0  0
    1.2128    4.9728    0.0660 C   0  0  0  0  0  0  0  0  0  0  0  0
    1.3878    5.4449   -1.2111 C   0  0  0  0  0  0  0  0  0  0  0  0
    0.3342    6.1413   -1.7760 C   0  0  0  0  0  0  0  0  0  0  0  0
   -0.8373    6.3471   -1.0780 C   0  0  0  0  0  0  0  0  0  0  0  0
   -1.0351    5.8773    0.2170 C   0  0  0  0  0  0  0  0  0  0  0  0
  1  2  2  0
  1  6  1  0
  2  3  1  0
  3  4  2  0
  4  5  1  0
  5  6  2  0
  5  7  1  0
  7  8  1  0
  8  9  1  0
  9 10  1  0
 10 11  2  0
 10 12  1  0
 12 13  1  0
 13 14  1  0
 14 15  1  0
 15 16  1  0
 16 17  1  0
 17 18  2  0
 17 19  1  0
 19 20  1  0
 20 21  1  0
 21 22  1  0
 24 22  1  0
 22 25  2  0
 23 24  2  0
 23 27  1  0
 25 26  1  0
 26 27  2  0
 14 28  1  0
 28 29  1  0
 29 30  2  0
 29 31  1  0
 31 32  1  0
 32 33  1  0
 33 34  1  0
 39 34  1  0
 35 34  2  0
 35 36  1  0
 36 37  2  0
 37 38  1  0
 38 39  2  0
M  END
