
     RDKit          3D

 81 84  0  0  0  0  0  0  0  0999 V2000
   -0.0004    0.3832   -0.0000 O   0  0  0  0  0  0  0  0  0  0  0  0
    0.6842    0.0000    0.0000 Cl  0  0  0  0  0  0  0  0  0  0  0  0
    0.6844    0.0000    0.0000 Cl  0  0  0  0  0  0  0  0  0  0  0  0
    3.5570    1.4940    0.0953 O   0  0  0  0  0  0  0  0  0  0  0  0
    5.3040   -0.5648    0.1406 O   0  0  0  0  0  0  0  0  0  0  0  0
   -2.3644   -0.7557    0.4982 N   0  0  0  0  0  0  0  0  0  0  0  0
   -1.1878   -0.6758   -0.3657 C   0  0  1  0  0  0  0  0  0  0  0  0
   -0.6471    0.6879   -0.2057 C   0  0  0  0  0  0  0  0  0  0  0  0
    0.6640    1.0409   -0.0937 C   0  0  0  0  0  0  0  0  0  0  0  0
    1.6531   -0.0255   -0.0273 C   0  0  0  0  0  0  0  0  0  0  0  0
    1.2054   -1.3069   -0.0735 C   0  0  0  0  0  0  0  0  0  0  0  0
   -1.6174    1.7037   -0.2141 C   0  0  0  0  0  0  0  0  0  0  0  0
   -0.2049   -1.7319   -0.1122 C   0  0  0  0  0  0  0  0  0  0  0  0
    3.0022    0.2303    0.0436 C   0  0  0  0  0  0  0  0  0  0  0  0
    1.0461    2.3478    0.0064 C   0  0  0  0  0  0  0  0  0  0  0  0
   -3.0594    1.4475   -0.3241 C   0  0  0  0  0  0  0  0  0  0  0  0
   -3.4023    0.0061   -0.1673 C   0  0  0  0  0  0  0  0  0  0  0  0
   -1.2186    3.0289   -0.1111 C   0  0  0  0  0  0  0  0  0  0  0  0
    2.1505   -2.3402   -0.0485 C   0  0  0  0  0  0  0  0  0  0  0  0
    3.9346   -0.8182    0.0685 C   0  0  0  0  0  0  0  0  0  0  0  0
    0.0933    3.3832   -0.0009 C   0  0  0  0  0  0  0  0  0  0  0  0
    3.4927   -2.1150    0.0211 C   0  0  0  0  0  0  0  0  0  0  0  0
   -2.8201   -2.1042    0.6585 C   0  0  0  0  0  0  0  0  0  0  0  0
    3.4950   -1.6047   -0.0142 O   0  0  0  0  0  0  0  0  0  0  0  0
    5.2859    0.3463   -0.5209 O   0  0  0  0  0  0  0  0  0  0  0  0
   -2.2994    0.6889   -0.6071 N   0  0  0  0  0  0  0  0  0  0  0  0
   -1.1499    0.7585    0.2875 C   0  0  1  0  0  0  0  0  0  0  0  0
   -0.6524   -0.6301    0.3782 C   0  0  0  0  0  0  0  0  0  0  0  0
    0.6513   -1.0190    0.2582 C   0  0  0  0  0  0  0  0  0  0  0  0
    1.6440   -0.0127   -0.0322 C   0  0  0  0  0  0  0  0  0  0  0  0
    1.2409    1.2783   -0.1781 C   0  0  0  0  0  0  0  0  0  0  0  0
   -1.6572   -1.5871    0.6313 C   0  0  0  0  0  0  0  0  0  0  0  0
   -0.1538    1.7653   -0.1057 C   0  0  0  0  0  0  0  0  0  0  0  0
    2.9754   -0.3316   -0.1433 C   0  0  0  0  0  0  0  0  0  0  0  0
    0.9809   -2.3499    0.3868 C   0  0  0  0  0  0  0  0  0  0  0  0
   -3.0679   -1.2309    0.7677 C   0  0  0  0  0  0  0  0  0  0  0  0
   -3.3845    0.0573    0.1040 C   0  0  0  0  0  0  0  0  0  0  0  0
   -1.2952   -2.9091    0.7542 C   0  0  0  0  0  0  0  0  0  0  0  0
    2.2029    2.2670   -0.4409 C   0  0  0  0  0  0  0  0  0  0  0  0
    3.9285    0.6629   -0.4062 C   0  0  0  0  0  0  0  0  0  0  0  0
    0.0058   -3.3302    0.6397 C   0  0  0  0  0  0  0  0  0  0  0  0
    3.5392    1.9695   -0.5555 C   0  0  0  0  0  0  0  0  0  0  0  0
   -2.7478    1.9893   -1.0487 C   0  0  0  0  0  0  0  0  0  0  0  0
    0.7996   -0.1915    0.0000 H   0  0  0  0  0  0  0  0  0  0  0  0
   -0.7992   -0.1918   -0.0000 H   0  0  0  0  0  0  0  0  0  0  0  0
   -0.6842    0.0000    0.0000 H   0  0  0  0  0  0  0  0  0  0  0  0
   -0.6844    0.0000    0.0000 H   0  0  0  0  0  0  0  0  0  0  0  0
    4.3780    1.7405    0.6040 H   0  0  0  0  0  0  0  0  0  0  0  0
    5.6557    0.1490    0.7695 H   0  0  0  0  0  0  0  0  0  0  0  0
   -1.5548   -0.7599   -1.4292 H   0  0  0  0  0  0  0  0  0  0  0  0
   -0.3122   -2.5400   -0.8903 H   0  0  0  0  0  0  0  0  0  0  0  0
   -0.4162   -2.1712    0.9000 H   0  0  0  0  0  0  0  0  0  0  0  0
    2.0554    2.7034    0.0982 H   0  0  0  0  0  0  0  0  0  0  0  0
   -3.4332    1.8055   -1.3228 H   0  0  0  0  0  0  0  0  0  0  0  0
   -3.5847    2.0455    0.4593 H   0  0  0  0  0  0  0  0  0  0  0  0
   -3.5639   -0.4321   -1.1816 H   0  0  0  0  0  0  0  0  0  0  0  0
   -4.3431   -0.1030    0.4241 H   0  0  0  0  0  0  0  0  0  0  0  0
   -1.9538    3.8175   -0.1166 H   0  0  0  0  0  0  0  0  0  0  0  0
    1.8274   -3.3816   -0.0850 H   0  0  0  0  0  0  0  0  0  0  0  0
    0.3816    4.4194    0.0773 H   0  0  0  0  0  0  0  0  0  0  0  0
    4.2391   -2.8951    0.0417 H   0  0  0  0  0  0  0  0  0  0  0  0
   -3.9203   -2.0481    0.8480 H   0  0  0  0  0  0  0  0  0  0  0  0
   -2.3767   -2.5212    1.5863 H   0  0  0  0  0  0  0  0  0  0  0  0
   -2.6593   -2.7607   -0.2153 H   0  0  0  0  0  0  0  0  0  0  0  0
    4.2061   -2.0167   -0.6001 H   0  0  0  0  0  0  0  0  0  0  0  0
    5.7222   -0.2591    0.1332 H   0  0  0  0  0  0  0  0  0  0  0  0
   -1.5670    1.0681    1.2920 H   0  0  0  0  0  0  0  0  0  0  0  0
   -0.3819    2.1272   -1.1577 H   0  0  0  0  0  0  0  0  0  0  0  0
   -0.1620    2.6567    0.5646 H   0  0  0  0  0  0  0  0  0  0  0  0
    1.9751   -2.7440    0.3073 H   0  0  0  0  0  0  0  0  0  0  0  0
   -3.6673   -2.0790    0.3502 H   0  0  0  0  0  0  0  0  0  0  0  0
   -3.3901   -1.1531    1.8450 H   0  0  0  0  0  0  0  0  0  0  0  0
   -3.7822    0.8289    0.8061 H   0  0  0  0  0  0  0  0  0  0  0  0
   -4.1879   -0.1398   -0.6626 H   0  0  0  0  0  0  0  0  0  0  0  0
   -2.0421   -3.6572    0.9471 H   0  0  0  0  0  0  0  0  0  0  0  0
    1.9233    3.3046   -0.5629 H   0  0  0  0  0  0  0  0  0  0  0  0
    0.2650   -4.3743    0.7406 H   0  0  0  0  0  0  0  0  0  0  0  0
    4.3054    2.7000   -0.7563 H   0  0  0  0  0  0  0  0  0  0  0  0
   -2.2372    2.3461   -1.9722 H   0  0  0  0  0  0  0  0  0  0  0  0
   -2.6626    2.7152   -0.1968 H   0  0  0  0  0  0  0  0  0  0  0  0
   -3.8585    1.8982   -1.2323 H   0  0  0  0  0  0  0  0  0  0  0  0
  4 14  1  0
  5 20  1  0
  6  7  1  0
  6 17  1  0
  6 23  1  0
  7  8  1  0
  7 13  1  0
  8  9  1  0
  8 12  2  0
  9 10  1  0
  9 15  2  0
 10 11  2  0
 10 14  1  0
 11 13  1  0
 11 19  1  0
 12 16  1  0
 12 18  1  0
 14 20  2  0
 15 21  1  0
 16 17  1  0
 18 21  2  0
 19 22  2  0
 20 22  1  0
 24 34  1  0
 25 40  1  0
 26 27  1  0
 26 37  1  0
 26 43  1  0
 27 28  1  0
 27 33  1  0
 28 29  1  0
 28 32  2  0
 29 30  1  0
 29 35  2  0
 30 31  2  0
 30 34  1  0
 31 33  1  0
 31 39  1  0
 32 36  1  0
 32 38  1  0
 34 40  2  0
 35 41  1  0
 36 37  1  0
 38 41  2  0
 39 42  2  0
 40 42  1  0
  1 44  1  0
  1 45  1  0
  2 46  1  0
  3 47  1  0
  4 48  1  0
  5 49  1  0
  7 50  1  6
 13 51  1  0
 13 52  1  0
 15 53  1  0
 16 54  1  0
 16 55  1  0
 17 56  1  0
 17 57  1  0
 18 58  1  0
 19 59  1  0
 21 60  1  0
 22 61  1  0
 23 62  1  0
 23 63  1  0
 23 64  1  0
 24 65  1  0
 25 66  1  0
 27 67  1  1
 33 68  1  0
 33 69  1  0
 35 70  1  0
 36 71  1  0
 36 72  1  0
 37 73  1  0
 37 74  1  0
 38 75  1  0
 39 76  1  0
 41 77  1  0
 42 78  1  0
 43 79  1  0
 43 80  1  0
 43 81  1  0
M  END
$$$$
