
     RDKit          3D

 81 84  0  0  0  0  0  0  0  0999 V2000
   -0.0003    0.4002   -0.0000 O   0  0  0  0  0  0  0  0  0  0  0  0
    0.6848    0.0000    0.0000 Cl  0  0  0  0  0  0  0  0  0  0  0  0
    0.6877    0.0000    0.0000 Cl  0  0  0  0  0  0  0  0  0  0  0  0
    3.4429    1.6533    0.3767 O   0  0  0  0  0  0  0  0  0  0  0  0
    5.3075   -0.2835    0.0806 O   0  0  0  0  0  0  0  0  0  0  0  0
   -2.2328   -1.0967    0.2822 N   0  0  0  0  0  0  0  0  0  0  0  0
   -1.1573   -0.6377   -0.5825 C   0  0  1  0  0  0  0  0  0  0  0  0
   -0.6877    0.7106   -0.1924 C   0  0  0  0  0  0  0  0  0  0  0  0
    0.6054    1.0781    0.0090 C   0  0  0  0  0  0  0  0  0  0  0  0
    1.6465    0.0774   -0.1222 C   0  0  0  0  0  0  0  0  0  0  0  0
    1.2815   -1.2023   -0.4418 C   0  0  0  0  0  0  0  0  0  0  0  0
   -1.7037    1.6697   -0.0450 C   0  0  0  0  0  0  0  0  0  0  0  0
   -0.1010   -1.6727   -0.6411 C   0  0  0  0  0  0  0  0  0  0  0  0
    2.9689    0.3996    0.0542 C   0  0  0  0  0  0  0  0  0  0  0  0
    0.8868    2.3810    0.3510 C   0  0  0  0  0  0  0  0  0  0  0  0
   -3.0854    1.1532   -0.2848 C   0  0  0  0  0  0  0  0  0  0  0  0
   -3.2112   -0.0871    0.5802 C   0  0  0  0  0  0  0  0  0  0  0  0
   -1.4125    2.9518    0.2930 C   0  0  0  0  0  0  0  0  0  0  0  0
    2.2810   -2.1745   -0.5859 C   0  0  0  0  0  0  0  0  0  0  0  0
    3.9504   -0.5872   -0.0943 C   0  0  0  0  0  0  0  0  0  0  0  0
   -0.1266    3.3420    0.4984 C   0  0  0  0  0  0  0  0  0  0  0  0
    3.5910   -1.8679   -0.4142 C   0  0  0  0  0  0  0  0  0  0  0  0
   -2.8280   -2.2946   -0.2730 C   0  0  0  0  0  0  0  0  0  0  0  0
    3.4853   -1.6329   -0.2644 O   0  0  0  0  0  0  0  0  0  0  0  0
    5.3072    0.3636   -0.2730 O   0  0  0  0  0  0  0  0  0  0  0  0
   -2.3052    0.9981   -0.3410 N   0  0  0  0  0  0  0  0  0  0  0  0
   -1.1584    0.6715    0.4821 C   0  0  1  0  0  0  0  0  0  0  0  0
   -0.6568   -0.6719    0.2659 C   0  0  0  0  0  0  0  0  0  0  0  0
    0.6356   -1.0798    0.0812 C   0  0  0  0  0  0  0  0  0  0  0  0
    1.6579   -0.0450    0.0431 C   0  0  0  0  0  0  0  0  0  0  0  0
    1.2487    1.2454    0.1893 C   0  0  0  0  0  0  0  0  0  0  0  0
   -1.6222   -1.6969    0.2689 C   0  0  0  0  0  0  0  0  0  0  0  0
   -0.1329    1.7256    0.3367 C   0  0  0  0  0  0  0  0  0  0  0  0
    2.9845   -0.3556   -0.1100 C   0  0  0  0  0  0  0  0  0  0  0  0
    0.9536   -2.4089   -0.0876 C   0  0  0  0  0  0  0  0  0  0  0  0
   -3.0251   -1.2376    0.4681 C   0  0  0  0  0  0  0  0  0  0  0  0
   -3.3264   -0.0053   -0.3323 C   0  0  0  0  0  0  0  0  0  0  0  0
   -1.3292   -3.0065    0.1044 C   0  0  0  0  0  0  0  0  0  0  0  0
    2.2394    2.2328    0.1771 C   0  0  0  0  0  0  0  0  0  0  0  0
    3.9550    0.6565   -0.1187 C   0  0  0  0  0  0  0  0  0  0  0  0
   -0.0326   -3.4107   -0.0794 C   0  0  0  0  0  0  0  0  0  0  0  0
    3.5646    1.9626    0.0277 C   0  0  0  0  0  0  0  0  0  0  0  0
   -2.8694    2.2259    0.2005 C   0  0  0  0  0  0  0  0  0  0  0  0
   -0.7958   -0.2003   -0.0000 H   0  0  0  0  0  0  0  0  0  0  0  0
    0.7961   -0.2000    0.0000 H   0  0  0  0  0  0  0  0  0  0  0  0
   -0.6848    0.0000    0.0000 H   0  0  0  0  0  0  0  0  0  0  0  0
   -0.6877    0.0000    0.0000 H   0  0  0  0  0  0  0  0  0  0  0  0
    4.1020    2.1841   -0.1797 H   0  0  0  0  0  0  0  0  0  0  0  0
    5.6284   -0.0900    1.0286 H   0  0  0  0  0  0  0  0  0  0  0  0
   -1.5593   -0.4980   -1.6361 H   0  0  0  0  0  0  0  0  0  0  0  0
   -0.3380   -2.4709    0.1144 H   0  0  0  0  0  0  0  0  0  0  0  0
   -0.1198   -2.1896   -1.6436 H   0  0  0  0  0  0  0  0  0  0  0  0
    1.8718    2.7643    0.5300 H   0  0  0  0  0  0  0  0  0  0  0  0
   -3.1202    0.8022   -1.3240 H   0  0  0  0  0  0  0  0  0  0  0  0
   -3.8731    1.8485    0.0181 H   0  0  0  0  0  0  0  0  0  0  0  0
   -4.2495   -0.5028    0.5562 H   0  0  0  0  0  0  0  0  0  0  0  0
   -3.0153    0.2565    1.6294 H   0  0  0  0  0  0  0  0  0  0  0  0
   -2.2029    3.6720    0.4011 H   0  0  0  0  0  0  0  0  0  0  0  0
    2.0281   -3.2017   -0.8397 H   0  0  0  0  0  0  0  0  0  0  0  0
    0.0967    4.3655    0.7671 H   0  0  0  0  0  0  0  0  0  0  0  0
    4.3751   -2.5962   -0.5193 H   0  0  0  0  0  0  0  0  0  0  0  0
   -3.8726   -2.4049    0.1178 H   0  0  0  0  0  0  0  0  0  0  0  0
   -2.2502   -3.1771    0.0409 H   0  0  0  0  0  0  0  0  0  0  0  0
   -2.9169   -2.2745   -1.3787 H   0  0  0  0  0  0  0  0  0  0  0  0
    4.2300   -1.8242   -0.9007 H   0  0  0  0  0  0  0  0  0  0  0  0
    5.5953    0.0088   -1.1863 H   0  0  0  0  0  0  0  0  0  0  0  0
   -1.5133    0.7348    1.5645 H   0  0  0  0  0  0  0  0  0  0  0  0
   -0.3424    2.2847   -0.6414 H   0  0  0  0  0  0  0  0  0  0  0  0
   -0.1624    2.4816    1.1724 H   0  0  0  0  0  0  0  0  0  0  0  0
    1.9455   -2.7893   -0.2368 H   0  0  0  0  0  0  0  0  0  0  0  0
   -3.1671   -1.0207    1.5380 H   0  0  0  0  0  0  0  0  0  0  0  0
   -3.6970   -2.0426    0.1631 H   0  0  0  0  0  0  0  0  0  0  0  0
   -3.5138   -0.3141   -1.3864 H   0  0  0  0  0  0  0  0  0  0  0  0
   -4.3022    0.3945    0.0540 H   0  0  0  0  0  0  0  0  0  0  0  0
   -2.0949   -3.7570    0.1131 H   0  0  0  0  0  0  0  0  0  0  0  0
    1.9585    3.2782    0.2913 H   0  0  0  0  0  0  0  0  0  0  0  0
    0.2089   -4.4490   -0.2104 H   0  0  0  0  0  0  0  0  0  0  0  0
    4.3320    2.7183    0.0175 H   0  0  0  0  0  0  0  0  0  0  0  0
   -2.4167    3.1083   -0.3036 H   0  0  0  0  0  0  0  0  0  0  0  0
   -3.9651    2.2959    0.0252 H   0  0  0  0  0  0  0  0  0  0  0  0
   -2.6692    2.3610    1.2824 H   0  0  0  0  0  0  0  0  0  0  0  0
  4 14  1  0
  5 20  1  0
  6  7  1  0
  6 17  1  0
  6 23  1  0
  7  8  1  0
  7 13  1  0
  8  9  1  0
  8 12  2  0
  9 10  1  0
  9 15  2  0
 10 11  2  0
 10 14  1  0
 11 13  1  0
 11 19  1  0
 12 16  1  0
 12 18  1  0
 14 20  2  0
 15 21  1  0
 16 17  1  0
 18 21  2  0
 19 22  2  0
 20 22  1  0
 24 34  1  0
 25 40  1  0
 26 27  1  0
 26 37  1  0
 26 43  1  0
 27 28  1  0
 27 33  1  0
 28 29  1  0
 28 32  2  0
 29 30  1  0
 29 35  2  0
 30 31  2  0
 30 34  1  0
 31 33  1  0
 31 39  1  0
 32 36  1  0
 32 38  1  0
 34 40  2  0
 35 41  1  0
 36 37  1  0
 38 41  2  0
 39 42  2  0
 40 42  1  0
  1 44  1  0
  1 45  1  0
  2 46  1  0
  3 47  1  0
  4 48  1  0
  5 49  1  0
  7 50  1  6
 13 51  1  0
 13 52  1  0
 15 53  1  0
 16 54  1  0
 16 55  1  0
 17 56  1  0
 17 57  1  0
 18 58  1  0
 19 59  1  0
 21 60  1  0
 22 61  1  0
 23 62  1  0
 23 63  1  0
 23 64  1  0
 24 65  1  0
 25 66  1  0
 27 67  1  1
 33 68  1  0
 33 69  1  0
 35 70  1  0
 36 71  1  0
 36 72  1  0
 37 73  1  0
 37 74  1  0
 38 75  1  0
 39 76  1  0
 41 77  1  0
 42 78  1  0
 43 79  1  0
 43 80  1  0
 43 81  1  0
M  END
$$$$
