
     RDKit          3D

 81 84  0  0  0  0  0  0  0  0999 V2000
   -0.0025    0.3636   -0.0000 O   0  0  0  0  0  0  0  0  0  0  0  0
    0.6918    0.0000    0.0000 Cl  0  0  0  0  0  0  0  0  0  0  0  0
    0.6915    0.0000    0.0000 Cl  0  0  0  0  0  0  0  0  0  0  0  0
    3.3054   -1.9439   -0.2518 O   0  0  0  0  0  0  0  0  0  0  0  0
    5.3057   -0.1209   -0.3165 O   0  0  0  0  0  0  0  0  0  0  0  0
   -2.2488    1.1630   -0.4999 N   0  0  0  0  0  0  0  0  0  0  0  0
   -1.1080    0.8105    0.3328 C   0  0  1  0  0  0  0  0  0  0  0  0
   -0.7265   -0.5923    0.1911 C   0  0  0  0  0  0  0  0  0  0  0  0
    0.5268   -1.1159    0.0424 C   0  0  0  0  0  0  0  0  0  0  0  0
    1.6329   -0.1812   -0.0115 C   0  0  0  0  0  0  0  0  0  0  0  0
    1.3252    1.1509    0.0894 C   0  0  0  0  0  0  0  0  0  0  0  0
   -1.7790   -1.5138    0.2284 C   0  0  0  0  0  0  0  0  0  0  0  0
    0.0044    1.7594    0.2217 C   0  0  0  0  0  0  0  0  0  0  0  0
    2.9271   -0.6206   -0.1451 C   0  0  0  0  0  0  0  0  0  0  0  0
    0.7143   -2.4750   -0.0617 C   0  0  0  0  0  0  0  0  0  0  0  0
   -3.1338   -0.8884    0.3876 C   0  0  0  0  0  0  0  0  0  0  0  0
   -3.2006    0.1406   -0.7180 C   0  0  0  0  0  0  0  0  0  0  0  0
   -1.6224   -2.8525    0.1284 C   0  0  0  0  0  0  0  0  0  0  0  0
    2.4043    2.0319    0.0490 C   0  0  0  0  0  0  0  0  0  0  0  0
    3.9900    0.2940   -0.1825 C   0  0  0  0  0  0  0  0  0  0  0  0
   -0.3638   -3.3765   -0.0204 C   0  0  0  0  0  0  0  0  0  0  0  0
    3.7065    1.6321   -0.0828 C   0  0  0  0  0  0  0  0  0  0  0  0
   -2.7856    2.4191   -0.0347 C   0  0  0  0  0  0  0  0  0  0  0  0
    3.4572    1.6855    0.2070 O   0  0  0  0  0  0  0  0  0  0  0  0
    5.2805   -0.2499   -0.2395 O   0  0  0  0  0  0  0  0  0  0  0  0
   -2.3127   -0.9027    0.3305 N   0  0  0  0  0  0  0  0  0  0  0  0
   -1.1444   -0.5894   -0.4823 C   0  0  1  0  0  0  0  0  0  0  0  0
   -0.6981    0.7617   -0.0470 C   0  0  0  0  0  0  0  0  0  0  0  0
    0.6102    1.1254    0.0709 C   0  0  0  0  0  0  0  0  0  0  0  0
    1.6248    0.1039   -0.1132 C   0  0  0  0  0  0  0  0  0  0  0  0
    1.2256   -1.1770   -0.3862 C   0  0  0  0  0  0  0  0  0  0  0  0
   -1.7420    1.6667    0.1831 C   0  0  0  0  0  0  0  0  0  0  0  0
   -0.1615   -1.6733   -0.4247 C   0  0  0  0  0  0  0  0  0  0  0  0
    2.9586    0.4372   -0.0584 C   0  0  0  0  0  0  0  0  0  0  0  0
    0.9125    2.4183    0.4220 C   0  0  0  0  0  0  0  0  0  0  0  0
   -3.1625    1.3278    0.0815 C   0  0  0  0  0  0  0  0  0  0  0  0
   -3.4490   -0.1376   -0.0768 C   0  0  0  0  0  0  0  0  0  0  0  0
   -1.3873    2.9417    0.5310 C   0  0  0  0  0  0  0  0  0  0  0  0
    2.2160   -2.1465   -0.6122 C   0  0  0  0  0  0  0  0  0  0  0  0
    3.9255   -0.5525   -0.2875 C   0  0  0  0  0  0  0  0  0  0  0  0
   -0.0886    3.3722    0.6641 C   0  0  0  0  0  0  0  0  0  0  0  0
    3.5551   -1.8442   -0.5649 C   0  0  0  0  0  0  0  0  0  0  0  0
   -2.5681   -2.3214    0.3991 C   0  0  0  0  0  0  0  0  0  0  0  0
    0.8262   -0.1810    0.0000 H   0  0  0  0  0  0  0  0  0  0  0  0
   -0.8237   -0.1826   -0.0000 H   0  0  0  0  0  0  0  0  0  0  0  0
   -0.6918    0.0000    0.0000 H   0  0  0  0  0  0  0  0  0  0  0  0
   -0.6915    0.0000    0.0000 H   0  0  0  0  0  0  0  0  0  0  0  0
    4.0860   -2.2699   -0.7749 H   0  0  0  0  0  0  0  0  0  0  0  0
    5.8960   -0.2857    0.4653 H   0  0  0  0  0  0  0  0  0  0  0  0
   -1.5121    0.9297    1.4070 H   0  0  0  0  0  0  0  0  0  0  0  0
   -0.1538    2.3036   -0.7799 H   0  0  0  0  0  0  0  0  0  0  0  0
   -0.0057    2.5526    1.0280 H   0  0  0  0  0  0  0  0  0  0  0  0
    1.6667   -2.9547   -0.1804 H   0  0  0  0  0  0  0  0  0  0  0  0
   -3.9529   -1.6273    0.3233 H   0  0  0  0  0  0  0  0  0  0  0  0
   -3.1061   -0.3437    1.3550 H   0  0  0  0  0  0  0  0  0  0  0  0
   -2.9078   -0.3899   -1.6618 H   0  0  0  0  0  0  0  0  0  0  0  0
   -4.2090    0.5879   -0.8136 H   0  0  0  0  0  0  0  0  0  0  0  0
   -2.4484   -3.5395    0.1601 H   0  0  0  0  0  0  0  0  0  0  0  0
    2.2446    3.1193    0.1241 H   0  0  0  0  0  0  0  0  0  0  0  0
   -0.2219   -4.4359   -0.1011 H   0  0  0  0  0  0  0  0  0  0  0  0
    4.5365    2.3199   -0.1134 H   0  0  0  0  0  0  0  0  0  0  0  0
   -3.8715    2.4703   -0.2550 H   0  0  0  0  0  0  0  0  0  0  0  0
   -2.2865    3.2573   -0.5787 H   0  0  0  0  0  0  0  0  0  0  0  0
   -2.6286    2.5857    1.0501 H   0  0  0  0  0  0  0  0  0  0  0  0
    4.2815    1.8822    0.7501 H   0  0  0  0  0  0  0  0  0  0  0  0
    5.8688   -0.9316    0.2161 H   0  0  0  0  0  0  0  0  0  0  0  0
   -1.4579   -0.4431   -1.5595 H   0  0  0  0  0  0  0  0  0  0  0  0
   -0.3725   -2.2773    0.5173 H   0  0  0  0  0  0  0  0  0  0  0  0
   -0.3248   -2.3495   -1.2985 H   0  0  0  0  0  0  0  0  0  0  0  0
    1.9091    2.7903    0.5389 H   0  0  0  0  0  0  0  0  0  0  0  0
   -3.6273    1.6728    1.0557 H   0  0  0  0  0  0  0  0  0  0  0  0
   -3.6315    1.9108   -0.7478 H   0  0  0  0  0  0  0  0  0  0  0  0
   -4.2779   -0.4045    0.6241 H   0  0  0  0  0  0  0  0  0  0  0  0
   -3.7532   -0.3469   -1.1334 H   0  0  0  0  0  0  0  0  0  0  0  0
   -2.1625    3.6725    0.7173 H   0  0  0  0  0  0  0  0  0  0  0  0
    1.9544   -3.1747   -0.8335 H   0  0  0  0  0  0  0  0  0  0  0  0
    0.1651    4.3925    0.9411 H   0  0  0  0  0  0  0  0  0  0  0  0
    4.3340   -2.5718   -0.7349 H   0  0  0  0  0  0  0  0  0  0  0  0
   -3.6653   -2.4964    0.4056 H   0  0  0  0  0  0  0  0  0  0  0  0
   -2.1781   -2.6783    1.3814 H   0  0  0  0  0  0  0  0  0  0  0  0
   -2.1138   -2.8927   -0.4365 H   0  0  0  0  0  0  0  0  0  0  0  0
  4 14  1  0
  5 20  1  0
  6  7  1  0
  6 17  1  0
  6 23  1  0
  7  8  1  0
  7 13  1  0
  8  9  1  0
  8 12  2  0
  9 10  1  0
  9 15  2  0
 10 11  2  0
 10 14  1  0
 11 13  1  0
 11 19  1  0
 12 16  1  0
 12 18  1  0
 14 20  2  0
 15 21  1  0
 16 17  1  0
 18 21  2  0
 19 22  2  0
 20 22  1  0
 24 34  1  0
 25 40  1  0
 26 27  1  0
 26 37  1  0
 26 43  1  0
 27 28  1  0
 27 33  1  0
 28 29  1  0
 28 32  2  0
 29 30  1  0
 29 35  2  0
 30 31  2  0
 30 34  1  0
 31 33  1  0
 31 39  1  0
 32 36  1  0
 32 38  1  0
 34 40  2  0
 35 41  1  0
 36 37  1  0
 38 41  2  0
 39 42  2  0
 40 42  1  0
  1 44  1  0
  1 45  1  0
  2 46  1  0
  3 47  1  0
  4 48  1  0
  5 49  1  0
  7 50  1  1
 13 51  1  0
 13 52  1  0
 15 53  1  0
 16 54  1  0
 16 55  1  0
 17 56  1  0
 17 57  1  0
 18 58  1  0
 19 59  1  0
 21 60  1  0
 22 61  1  0
 23 62  1  0
 23 63  1  0
 23 64  1  0
 24 65  1  0
 25 66  1  0
 27 67  1  6
 33 68  1  0
 33 69  1  0
 35 70  1  0
 36 71  1  0
 36 72  1  0
 37 73  1  0
 37 74  1  0
 38 75  1  0
 39 76  1  0
 41 77  1  0
 42 78  1  0
 43 79  1  0
 43 80  1  0
 43 81  1  0
M  END
$$$$
