
     RDKit          3D

 81 84  0  0  0  0  0  0  0  0999 V2000
   -0.0017    0.3851   -0.0000 O   0  0  0  0  0  0  0  0  0  0  0  0
    0.6892    0.0000    0.0000 Cl  0  0  0  0  0  0  0  0  0  0  0  0
    0.6849    0.0000    0.0000 Cl  0  0  0  0  0  0  0  0  0  0  0  0
    3.4483   -1.5071   -0.9017 O   0  0  0  0  0  0  0  0  0  0  0  0
    5.2514    0.4422   -0.4383 O   0  0  0  0  0  0  0  0  0  0  0  0
   -2.2486    0.9964   -0.4160 N   0  0  0  0  0  0  0  0  0  0  0  0
   -1.1738    0.5210    0.3936 C   0  0  1  0  0  0  0  0  0  0  0  0
   -0.6920   -0.7798   -0.1356 C   0  0  0  0  0  0  0  0  0  0  0  0
    0.6092   -1.0782   -0.4029 C   0  0  0  0  0  0  0  0  0  0  0  0
    1.6173   -0.0678   -0.1761 C   0  0  0  0  0  0  0  0  0  0  0  0
    1.2464    1.1700    0.3018 C   0  0  0  0  0  0  0  0  0  0  0  0
   -1.7001   -1.7338   -0.3506 C   0  0  0  0  0  0  0  0  0  0  0  0
   -0.1516    1.5585    0.6025 C   0  0  0  0  0  0  0  0  0  0  0  0
    2.9351   -0.3150   -0.4224 C   0  0  0  0  0  0  0  0  0  0  0  0
    0.9203   -2.3252   -0.8850 C   0  0  0  0  0  0  0  0  0  0  0  0
   -3.0771   -1.3093   -0.0313 C   0  0  0  0  0  0  0  0  0  0  0  0
   -3.3096    0.0530   -0.6308 C   0  0  0  0  0  0  0  0  0  0  0  0
   -1.3591   -2.9727   -0.8336 C   0  0  0  0  0  0  0  0  0  0  0  0
    2.2026    2.1692    0.5355 C   0  0  0  0  0  0  0  0  0  0  0  0
    3.9002    0.6782   -0.1919 C   0  0  0  0  0  0  0  0  0  0  0  0
   -0.0596   -3.3052   -1.1125 C   0  0  0  0  0  0  0  0  0  0  0  0
    3.5284    1.9093    0.2839 C   0  0  0  0  0  0  0  0  0  0  0  0
   -2.7109    2.3011   -0.0368 C   0  0  0  0  0  0  0  0  0  0  0  0
    3.3678    1.4935    0.3382 O   0  0  0  0  0  0  0  0  0  0  0  0
    5.2358   -0.4594    0.4105 O   0  0  0  0  0  0  0  0  0  0  0  0
   -2.4180   -1.1992    0.1008 N   0  0  0  0  0  0  0  0  0  0  0  0
   -1.1672   -0.9281   -0.6026 C   0  0  1  0  0  0  0  0  0  0  0  0
   -0.7142    0.4488   -0.3578 C   0  0  0  0  0  0  0  0  0  0  0  0
    0.5495    0.8737   -0.1227 C   0  0  0  0  0  0  0  0  0  0  0  0
    1.5962   -0.1408   -0.0479 C   0  0  0  0  0  0  0  0  0  0  0  0
    1.2095   -1.4415   -0.2176 C   0  0  0  0  0  0  0  0  0  0  0  0
   -1.7359    1.4216   -0.4021 C   0  0  0  0  0  0  0  0  0  0  0  0
   -0.1471   -1.9535   -0.4205 C   0  0  0  0  0  0  0  0  0  0  0  0
    2.9049    0.2054    0.1589 C   0  0  0  0  0  0  0  0  0  0  0  0
    0.8277    2.2094    0.0651 C   0  0  0  0  0  0  0  0  0  0  0  0
   -3.1437    1.0458   -0.6514 C   0  0  0  0  0  0  0  0  0  0  0  0
   -3.4347   -0.4071   -0.5412 C   0  0  0  0  0  0  0  0  0  0  0  0
   -1.4620    2.7565   -0.2146 C   0  0  0  0  0  0  0  0  0  0  0  0
    2.2229   -2.4010   -0.1700 C   0  0  0  0  0  0  0  0  0  0  0  0
    3.9013   -0.7815    0.2023 C   0  0  0  0  0  0  0  0  0  0  0  0
   -0.1815    3.1869    0.0226 C   0  0  0  0  0  0  0  0  0  0  0  0
    3.5422   -2.0942    0.0343 C   0  0  0  0  0  0  0  0  0  0  0  0
   -2.3218   -0.8639    1.5046 C   0  0  0  0  0  0  0  0  0  0  0  0
    0.8026   -0.1920    0.0000 H   0  0  0  0  0  0  0  0  0  0  0  0
   -0.8010   -0.1931   -0.0000 H   0  0  0  0  0  0  0  0  0  0  0  0
   -0.6892    0.0000    0.0000 H   0  0  0  0  0  0  0  0  0  0  0  0
   -0.6849    0.0000    0.0000 H   0  0  0  0  0  0  0  0  0  0  0  0
    4.1502   -2.0456   -0.4226 H   0  0  0  0  0  0  0  0  0  0  0  0
    5.9757    0.8111    0.1815 H   0  0  0  0  0  0  0  0  0  0  0  0
   -1.6353    0.2603    1.3929 H   0  0  0  0  0  0  0  0  0  0  0  0
   -0.1246    1.9046    1.6783 H   0  0  0  0  0  0  0  0  0  0  0  0
   -0.3514    2.4816    0.0046 H   0  0  0  0  0  0  0  0  0  0  0  0
    1.9143   -2.6504   -1.1239 H   0  0  0  0  0  0  0  0  0  0  0  0
   -3.2496   -1.2412    1.0591 H   0  0  0  0  0  0  0  0  0  0  0  0
   -3.8093   -2.0029   -0.4748 H   0  0  0  0  0  0  0  0  0  0  0  0
   -4.2277    0.4661   -0.1637 H   0  0  0  0  0  0  0  0  0  0  0  0
   -3.4805   -0.0654   -1.7110 H   0  0  0  0  0  0  0  0  0  0  0  0
   -2.1277   -3.7105   -1.0012 H   0  0  0  0  0  0  0  0  0  0  0  0
    1.9196    3.1473    0.9121 H   0  0  0  0  0  0  0  0  0  0  0  0
    0.1707   -4.2734   -1.4854 H   0  0  0  0  0  0  0  0  0  0  0  0
    4.3010    2.6447    0.4476 H   0  0  0  0  0  0  0  0  0  0  0  0
   -2.6081    2.3790    1.0831 H   0  0  0  0  0  0  0  0  0  0  0  0
   -2.2021    3.1297   -0.5655 H   0  0  0  0  0  0  0  0  0  0  0  0
   -3.7919    2.3601   -0.3082 H   0  0  0  0  0  0  0  0  0  0  0  0
    4.0219    1.6595    1.1050 H   0  0  0  0  0  0  0  0  0  0  0  0
    5.7531    0.1540   -0.2191 H   0  0  0  0  0  0  0  0  0  0  0  0
   -1.4940   -0.9312   -1.6952 H   0  0  0  0  0  0  0  0  0  0  0  0
   -0.1309   -2.7228   -1.2459 H   0  0  0  0  0  0  0  0  0  0  0  0
   -0.4068   -2.5001    0.5535 H   0  0  0  0  0  0  0  0  0  0  0  0
    1.8035    2.6125    0.2556 H   0  0  0  0  0  0  0  0  0  0  0  0
   -3.5130    1.3924   -1.6610 H   0  0  0  0  0  0  0  0  0  0  0  0
   -3.7519    1.6404    0.0911 H   0  0  0  0  0  0  0  0  0  0  0  0
   -4.4216   -0.5412   -0.0259 H   0  0  0  0  0  0  0  0  0  0  0  0
   -3.5742   -0.8590   -1.5667 H   0  0  0  0  0  0  0  0  0  0  0  0
   -2.2357    3.5106   -0.2463 H   0  0  0  0  0  0  0  0  0  0  0  0
    1.9907   -3.4626   -0.2980 H   0  0  0  0  0  0  0  0  0  0  0  0
    0.0384    4.2350    0.1702 H   0  0  0  0  0  0  0  0  0  0  0  0
    4.3281   -2.8349    0.0717 H   0  0  0  0  0  0  0  0  0  0  0  0
   -3.1860   -0.2164    1.7925 H   0  0  0  0  0  0  0  0  0  0  0  0
   -2.4480   -1.8039    2.0811 H   0  0  0  0  0  0  0  0  0  0  0  0
   -1.4054   -0.3037    1.7482 H   0  0  0  0  0  0  0  0  0  0  0  0
  4 14  1  0
  5 20  1  0
  6  7  1  0
  6 17  1  0
  6 23  1  0
  7  8  1  0
  7 13  1  0
  8  9  1  0
  8 12  2  0
  9 10  1  0
  9 15  2  0
 10 11  2  0
 10 14  1  0
 11 13  1  0
 11 19  1  0
 12 16  1  0
 12 18  1  0
 14 20  2  0
 15 21  1  0
 16 17  1  0
 18 21  2  0
 19 22  2  0
 20 22  1  0
 24 34  1  0
 25 40  1  0
 26 27  1  0
 26 37  1  0
 26 43  1  0
 27 28  1  0
 27 33  1  0
 28 29  1  0
 28 32  2  0
 29 30  1  0
 29 35  2  0
 30 31  2  0
 30 34  1  0
 31 33  1  0
 31 39  1  0
 32 36  1  0
 32 38  1  0
 34 40  2  0
 35 41  1  0
 36 37  1  0
 38 41  2  0
 39 42  2  0
 40 42  1  0
  1 44  1  0
  1 45  1  0
  2 46  1  0
  3 47  1  0
  4 48  1  0
  5 49  1  0
  7 50  1  1
 13 51  1  0
 13 52  1  0
 15 53  1  0
 16 54  1  0
 16 55  1  0
 17 56  1  0
 17 57  1  0
 18 58  1  0
 19 59  1  0
 21 60  1  0
 22 61  1  0
 23 62  1  0
 23 63  1  0
 23 64  1  0
 24 65  1  0
 25 66  1  0
 27 67  1  6
 33 68  1  0
 33 69  1  0
 35 70  1  0
 36 71  1  0
 36 72  1  0
 37 73  1  0
 37 74  1  0
 38 75  1  0
 39 76  1  0
 41 77  1  0
 42 78  1  0
 43 79  1  0
 43 80  1  0
 43 81  1  0
M  END
$$$$
