
     RDKit          3D

 44 19  0  0  0  0  0  0  0  0999 V2000
    0.0000    0.0000    0.0000 Mg  0  0  0  0  0 15  0  0  0  0  0  0
   -0.0043    0.0370    0.0004 C   0  0  0  0  0  0  0  0  0  0  0  0
    1.2974   -0.4121   -0.0002 O   0  0  0  0  0  0  0  0  0  0  0  0
   -1.0388   -0.8977   -0.0122 O   0  0  0  0  0  0  0  0  0  0  0  0
   -0.2543    1.2728    0.0121 O   0  0  0  0  0  0  0  0  0  0  0  0
    0.4997    0.0000    0.0000 O   0  0  0  0  0  0  0  0  0  0  0  0
    0.4997    0.0000    0.0000 O   0  0  0  0  0  0  0  0  0  0  0  0
    0.4994    0.0000    0.0000 O   0  0  0  0  0  0  0  0  0  0  0  0
    0.0000    0.0000    0.0000 Mg  0  0  0  0  0 15  0  0  0  0  0  0
    0.0000    0.0000    0.0000 Mg  0  0  0  0  0 15  0  0  0  0  0  0
    0.4984    0.0000    0.0000 O   0  0  0  0  0  0  0  0  0  0  0  0
    0.4965    0.0000    0.0000 O   0  0  0  0  0  0  0  0  0  0  0  0
    0.4922    0.0000    0.0000 O   0  0  0  0  0  0  0  0  0  0  0  0
    0.4930    0.0000    0.0000 O   0  0  0  0  0  0  0  0  0  0  0  0
    0.4991    0.0000    0.0000 O   0  0  0  0  0  0  0  0  0  0  0  0
    0.4901    0.0000    0.0000 O   0  0  0  0  0  0  0  0  0  0  0  0
    0.4959    0.0000    0.0000 O   0  0  0  0  0  0  0  0  0  0  0  0
    0.4937    0.0000    0.0000 O   0  0  0  0  0  0  0  0  0  0  0  0
    0.4975    0.0000    0.0000 O   0  0  0  0  0  0  0  0  0  0  0  0
    0.4962    0.0000    0.0000 O   0  0  0  0  0  0  0  0  0  0  0  0
    0.4930    0.0000    0.0000 O   0  0  0  0  0  0  0  0  0  0  0  0
    0.4938    0.0000    0.0000 O   0  0  0  0  0  0  0  0  0  0  0  0
    0.4963    0.0000    0.0000 O   0  0  0  0  0  0  0  0  0  0  0  0
    0.0000    0.0000    0.0000 Al  0  0  0  0  0 15  0  0  0  0  0  0
    0.0000    0.0000    0.0000 Al  0  0  0  0  0 15  0  0  0  0  0  0
    0.0000    0.0000    0.0000 Mg  0  0  0  0  0 15  0  0  0  0  0  0
    0.0000    0.0000    0.0000 Mg  0  0  0  0  0 15  0  0  0  0  0  0
    0.0000    0.0000    0.0000 Mg  0  0  0  0  0 15  0  0  0  0  0  0
   -0.4997    0.0000    0.0000 H   0  0  0  0  0  0  0  0  0  0  0  0
   -0.4997    0.0000    0.0000 H   0  0  0  0  0  0  0  0  0  0  0  0
   -0.4994    0.0000    0.0000 H   0  0  0  0  0  0  0  0  0  0  0  0
   -0.4984    0.0000    0.0000 H   0  0  0  0  0  0  0  0  0  0  0  0
   -0.4965    0.0000    0.0000 H   0  0  0  0  0  0  0  0  0  0  0  0
   -0.4922    0.0000    0.0000 H   0  0  0  0  0  0  0  0  0  0  0  0
   -0.4930    0.0000    0.0000 H   0  0  0  0  0  0  0  0  0  0  0  0
   -0.4991    0.0000    0.0000 H   0  0  0  0  0  0  0  0  0  0  0  0
   -0.4901    0.0000    0.0000 H   0  0  0  0  0  0  0  0  0  0  0  0
   -0.4959    0.0000    0.0000 H   0  0  0  0  0  0  0  0  0  0  0  0
   -0.4937    0.0000    0.0000 H   0  0  0  0  0  0  0  0  0  0  0  0
   -0.4975    0.0000    0.0000 H   0  0  0  0  0  0  0  0  0  0  0  0
   -0.4962    0.0000    0.0000 H   0  0  0  0  0  0  0  0  0  0  0  0
   -0.4930    0.0000    0.0000 H   0  0  0  0  0  0  0  0  0  0  0  0
   -0.4938    0.0000    0.0000 H   0  0  0  0  0  0  0  0  0  0  0  0
   -0.4963    0.0000    0.0000 H   0  0  0  0  0  0  0  0  0  0  0  0
  3  2  1  0
  4  2  1  0
  5  2  2  0
  6 29  1  0
  7 30  1  0
  8 31  1  0
 11 32  1  0
 12 33  1  0
 13 34  1  0
 14 35  1  0
 15 36  1  0
 16 37  1  0
 17 38  1  0
 18 39  1  0
 19 40  1  0
 20 41  1  0
 21 42  1  0
 22 43  1  0
 23 44  1  0
M  CHG  8   1   2   3  -1   4  -1   6  -1   7  -1   8  -1   9   2  10   2
M  CHG  8  11  -1  12  -1  13  -1  14  -1  15  -1  16  -1  17  -1  18  -1
M  CHG  8  19  -1  20  -1  21  -1  22  -1  23  -1  24   3  25   3  26   2
M  CHG  2  27   2  28   2
M  END
$$$$
