
     RDKit          3D

 61 64  0  0  0  0  0  0  0  0999 V2000
   -9.9550    0.6261   -1.1495 C   0  0  0  0  0  0  0  0  0  0  0  0
   -9.6564    1.6107   -0.1509 O   0  0  0  0  0  0  0  0  0  0  0  0
   -8.2648    1.9476   -0.2029 C   0  0  0  0  0  0  0  0  0  0  0  0
   -7.3763    0.7101    0.0185 C   0  0  0  0  0  0  0  0  0  0  0  0
   -7.6663   -0.3587   -0.9654 N   0  0  0  0  0  0  0  0  0  0  0  0
   -9.1191   -0.6455   -0.9361 C   0  0  0  0  0  0  0  0  0  0  0  0
   -6.9060   -1.5962   -0.6805 C   0  0  0  0  0  0  0  0  0  0  0  0
   -5.3757   -1.4602   -0.8013 C   0  0  0  0  0  0  0  0  0  0  0  0
   -4.8441   -0.9590    0.4278 O   0  0  0  0  0  0  0  0  0  0  0  0
   -3.4856   -0.8443    0.5205 C   0  0  0  0  0  0  0  0  0  0  0  0
   -2.5649   -1.1221   -0.4872 C   0  0  0  0  0  0  0  0  0  0  0  0
   -3.0219   -0.4025    1.7596 C   0  0  0  0  0  0  0  0  0  0  0  0
   -1.6525   -0.2442    1.9953 C   0  0  0  0  0  0  0  0  0  0  0  0
   -0.7113   -0.5263    0.9941 C   0  0  0  0  0  0  0  0  0  0  0  0
   -1.1919   -0.9657   -0.2504 C   0  0  0  0  0  0  0  0  0  0  0  0
    0.7279   -0.3648    1.2411 C   0  0  0  0  0  0  0  0  0  0  0  0
    1.2624    0.8282    1.7386 C   0  0  0  0  0  0  0  0  0  0  0  0
    1.6406   -1.3908    0.9962 C   0  0  0  0  0  0  0  0  0  0  0  0
    2.9801   -1.3081    1.2013 N   0  0  0  0  0  0  0  0  0  0  0  0
    3.4599   -0.1384    1.6888 C   0  0  0  0  0  0  0  0  0  0  0  0
    2.6336    0.9468    1.9658 C   0  0  0  0  0  0  0  0  0  0  0  0
    5.7450    2.0654    1.1086 O   0  0  0  0  0  0  0  0  0  0  0  0
    5.6069    0.8611    0.9074 C   0  0  0  0  0  0  0  0  0  0  0  0
    4.9429   -0.0490    1.9173 C   0  0  0  0  0  0  0  0  0  0  0  0
    6.7438    0.9154   -1.2868 C   0  0  0  0  0  0  0  0  0  0  0  0
    6.0175    0.2281   -0.2444 N   0  0  0  0  0  0  0  0  0  0  0  0
    8.9942    1.4163   -0.2599 C   0  0  0  0  0  0  0  0  0  0  0  0
    8.2258    0.6674   -1.1642 C   0  0  0  0  0  0  0  0  0  0  0  0
    8.8531   -0.3321   -1.9202 C   0  0  0  0  0  0  0  0  0  0  0  0
   10.2240   -0.5660   -1.7856 C   0  0  0  0  0  0  0  0  0  0  0  0
   10.9784    0.1910   -0.8898 C   0  0  0  0  0  0  0  0  0  0  0  0
   10.3637    1.1803   -0.1257 C   0  0  0  0  0  0  0  0  0  0  0  0
  -11.0201    0.3858   -1.0689 H   0  0  0  0  0  0  0  0  0  0  0  0
   -9.7850    1.0557   -2.1451 H   0  0  0  0  0  0  0  0  0  0  0  0
   -8.0746    2.6847    0.5850 H   0  0  0  0  0  0  0  0  0  0  0  0
   -8.0446    2.4264   -1.1659 H   0  0  0  0  0  0  0  0  0  0  0  0
   -6.3343    1.0343   -0.0652 H   0  0  0  0  0  0  0  0  0  0  0  0
   -7.5416    0.3348    1.0374 H   0  0  0  0  0  0  0  0  0  0  0  0
   -9.3921   -1.0877    0.0319 H   0  0  0  0  0  0  0  0  0  0  0  0
   -9.3721   -1.3667   -1.7221 H   0  0  0  0  0  0  0  0  0  0  0  0
   -7.1647   -1.9849    0.3126 H   0  0  0  0  0  0  0  0  0  0  0  0
   -7.2128   -2.3461   -1.4206 H   0  0  0  0  0  0  0  0  0  0  0  0
   -5.1190   -0.7979   -1.6366 H   0  0  0  0  0  0  0  0  0  0  0  0
   -4.9620   -2.4588   -0.9887 H   0  0  0  0  0  0  0  0  0  0  0  0
   -2.8764   -1.4570   -1.4709 H   0  0  0  0  0  0  0  0  0  0  0  0
   -3.7320   -0.1830    2.5533 H   0  0  0  0  0  0  0  0  0  0  0  0
   -1.3272    0.0901    2.9784 H   0  0  0  0  0  0  0  0  0  0  0  0
   -0.4969   -1.1786   -1.0614 H   0  0  0  0  0  0  0  0  0  0  0  0
    0.6172    1.6803    1.9405 H   0  0  0  0  0  0  0  0  0  0  0  0
    1.3073   -2.3560    0.6217 H   0  0  0  0  0  0  0  0  0  0  0  0
    3.0462    1.8786    2.3437 H   0  0  0  0  0  0  0  0  0  0  0  0
    5.3969   -1.0464    1.8682 H   0  0  0  0  0  0  0  0  0  0  0  0
    5.1488    0.3317    2.9248 H   0  0  0  0  0  0  0  0  0  0  0  0
    6.5364    1.9904   -1.2577 H   0  0  0  0  0  0  0  0  0  0  0  0
    6.3702    0.5392   -2.2465 H   0  0  0  0  0  0  0  0  0  0  0  0
    5.9243   -0.7774   -0.3126 H   0  0  0  0  0  0  0  0  0  0  0  0
    8.5223    2.1873    0.3498 H   0  0  0  0  0  0  0  0  0  0  0  0
    8.2794   -0.9342   -2.6208 H   0  0  0  0  0  0  0  0  0  0  0  0
   10.7042   -1.3398   -2.3792 H   0  0  0  0  0  0  0  0  0  0  0  0
   12.0454    0.0071   -0.7854 H   0  0  0  0  0  0  0  0  0  0  0  0
   10.9487    1.7674    0.5784 H   0  0  0  0  0  0  0  0  0  0  0  0
  1  2  1  0
  2  3  1  0
  3  4  1  0
  4  5  1  0
  5  6  1  0
  1  6  1  0
  7  8  1  0
  5  7  1  0
  9 10  1  0
 10 11  2  0
  8  9  1  0
 12 13  2  0
 13 14  1  0
 14 15  2  0
 10 12  1  0
 11 15  1  0
 16 17  2  0
 16 14  1  0
 18 19  2  0
 19 20  1  0
 20 21  2  0
 17 21  1  0
 16 18  1  0
 22 23  2  0
 23 24  1  0
 20 24  1  0
 25 26  1  0
 23 26  1  0
 27 28  2  0
 25 28  1  0
 29 30  2  0
 30 31  1  0
 31 32  2  0
 27 32  1  0
 28 29  1  0
  1 33  1  0
  1 34  1  0
  3 35  1  0
  3 36  1  0
  4 37  1  0
  4 38  1  0
  6 39  1  0
  6 40  1  0
  7 41  1  0
  7 42  1  0
  8 43  1  0
  8 44  1  0
 11 45  1  0
 12 46  1  0
 13 47  1  0
 15 48  1  0
 17 49  1  0
 18 50  1  0
 21 51  1  0
 24 52  1  0
 24 53  1  0
 25 54  1  0
 25 55  1  0
 26 56  1  0
 27 57  1  0
 29 58  1  0
 30 59  1  0
 31 60  1  0
 32 61  1  0
M  END
$$$$
