
     RDKit          3D

 61 64  0  0  0  0  0  0  0  0999 V2000
   -8.9447    1.2136   -0.2697 C   0  0  0  0  0  0  0  0  0  0  0  0
   -8.7089    0.8156   -1.6305 O   0  0  0  0  0  0  0  0  0  0  0  0
   -8.1140   -0.4812   -1.7416 C   0  0  0  0  0  0  0  0  0  0  0  0
   -8.5558   -1.4562   -0.6319 C   0  0  0  0  0  0  0  0  0  0  0  0
   -8.3014   -0.9571    0.7328 N   0  0  0  0  0  0  0  0  0  0  0  0
   -8.0389    0.4915    0.7471 C   0  0  0  0  0  0  0  0  0  0  0  0
   -7.3332   -1.7470    1.5115 C   0  0  0  0  0  0  0  0  0  0  0  0
   -5.8733   -1.7984    1.0099 C   0  0  0  0  0  0  0  0  0  0  0  0
   -5.1707   -0.6333    1.4482 O   0  0  0  0  0  0  0  0  0  0  0  0
   -3.8543   -0.5286    1.0964 C   0  0  0  0  0  0  0  0  0  0  0  0
   -3.1970    0.5818    1.6258 C   0  0  0  0  0  0  0  0  0  0  0  0
   -3.1469   -1.4088    0.2781 C   0  0  0  0  0  0  0  0  0  0  0  0
   -1.7943   -1.1749   -0.0027 C   0  0  0  0  0  0  0  0  0  0  0  0
   -1.1216   -0.0621    0.5278 C   0  0  0  0  0  0  0  0  0  0  0  0
   -1.8461    0.8137    1.3490 C   0  0  0  0  0  0  0  0  0  0  0  0
    0.2976    0.1717    0.2389 C   0  0  0  0  0  0  0  0  0  0  0  0
    1.2506    0.2689    1.2569 C   0  0  0  0  0  0  0  0  0  0  0  0
    0.7731    0.3101   -1.0618 C   0  0  0  0  0  0  0  0  0  0  0  0
    2.0708    0.5243   -1.3955 N   0  0  0  0  0  0  0  0  0  0  0  0
    2.9760    0.5838   -0.3888 C   0  0  0  0  0  0  0  0  0  0  0  0
    2.5940    0.4819    0.9467 C   0  0  0  0  0  0  0  0  0  0  0  0
    5.3477   -1.0412    0.3347 O   0  0  0  0  0  0  0  0  0  0  0  0
    5.4521    0.1382    0.0084 C   0  0  0  0  0  0  0  0  0  0  0  0
    4.3974    0.8831   -0.7897 C   0  0  0  0  0  0  0  0  0  0  0  0
    7.7001    0.3678    1.0222 C   0  0  0  0  0  0  0  0  0  0  0  0
    6.5467    0.9073    0.3366 N   0  0  0  0  0  0  0  0  0  0  0  0
    9.1942   -0.4452   -0.8433 C   0  0  0  0  0  0  0  0  0  0  0  0
    8.9285    0.5035    0.1567 C   0  0  0  0  0  0  0  0  0  0  0  0
    9.7941    1.5986    0.3042 C   0  0  0  0  0  0  0  0  0  0  0  0
   10.9113    1.7328   -0.5243 C   0  0  0  0  0  0  0  0  0  0  0  0
   11.1692    0.7809   -1.5114 C   0  0  0  0  0  0  0  0  0  0  0  0
   10.3104   -0.3069   -1.6712 C   0  0  0  0  0  0  0  0  0  0  0  0
   -8.7802    2.2949   -0.2171 H   0  0  0  0  0  0  0  0  0  0  0  0
  -10.0028    1.0326   -0.0418 H   0  0  0  0  0  0  0  0  0  0  0  0
   -8.3890   -0.8844   -2.7240 H   0  0  0  0  0  0  0  0  0  0  0  0
   -7.0230   -0.3581   -1.7361 H   0  0  0  0  0  0  0  0  0  0  0  0
   -9.6411   -1.6101   -0.7197 H   0  0  0  0  0  0  0  0  0  0  0  0
   -8.0916   -2.4358   -0.8030 H   0  0  0  0  0  0  0  0  0  0  0  0
   -6.9956    0.7143    0.4823 H   0  0  0  0  0  0  0  0  0  0  0  0
   -8.2273    0.8857    1.7547 H   0  0  0  0  0  0  0  0  0  0  0  0
   -7.3444   -1.3826    2.5479 H   0  0  0  0  0  0  0  0  0  0  0  0
   -7.7150   -2.7757    1.5530 H   0  0  0  0  0  0  0  0  0  0  0  0
   -5.3962   -2.6833    1.4491 H   0  0  0  0  0  0  0  0  0  0  0  0
   -5.8459   -1.8813   -0.0827 H   0  0  0  0  0  0  0  0  0  0  0  0
   -3.7396    1.2762    2.2636 H   0  0  0  0  0  0  0  0  0  0  0  0
   -3.6096   -2.2876   -0.1584 H   0  0  0  0  0  0  0  0  0  0  0  0
   -1.2611   -1.8849   -0.6351 H   0  0  0  0  0  0  0  0  0  0  0  0
   -1.3679    1.6945    1.7736 H   0  0  0  0  0  0  0  0  0  0  0  0
    0.9557    0.1654    2.2987 H   0  0  0  0  0  0  0  0  0  0  0  0
    0.0970    0.2642   -1.9112 H   0  0  0  0  0  0  0  0  0  0  0  0
    3.3231    0.5533    1.7479 H   0  0  0  0  0  0  0  0  0  0  0  0
    4.5487    1.9657   -0.6998 H   0  0  0  0  0  0  0  0  0  0  0  0
    4.5495    0.6175   -1.8430 H   0  0  0  0  0  0  0  0  0  0  0  0
    7.5436   -0.6803    1.3051 H   0  0  0  0  0  0  0  0  0  0  0  0
    7.8241    0.9400    1.9515 H   0  0  0  0  0  0  0  0  0  0  0  0
    6.6213    1.8547   -0.0108 H   0  0  0  0  0  0  0  0  0  0  0  0
    8.5267   -1.2957   -0.9829 H   0  0  0  0  0  0  0  0  0  0  0  0
    9.6036    2.3542    1.0652 H   0  0  0  0  0  0  0  0  0  0  0  0
   11.5789    2.5806   -0.4005 H   0  0  0  0  0  0  0  0  0  0  0  0
   12.0376    0.8858   -2.1577 H   0  0  0  0  0  0  0  0  0  0  0  0
   10.5079   -1.0482   -2.4432 H   0  0  0  0  0  0  0  0  0  0  0  0
  1  2  1  0
  2  3  1  0
  3  4  1  0
  4  5  1  0
  5  6  1  0
  1  6  1  0
  7  8  1  0
  5  7  1  0
  9 10  1  0
 10 11  2  0
  8  9  1  0
 12 13  2  0
 13 14  1  0
 14 15  2  0
 10 12  1  0
 11 15  1  0
 16 17  2  0
 16 14  1  0
 18 19  2  0
 19 20  1  0
 20 21  2  0
 17 21  1  0
 16 18  1  0
 22 23  2  0
 23 24  1  0
 20 24  1  0
 25 26  1  0
 23 26  1  0
 27 28  2  0
 25 28  1  0
 29 30  2  0
 30 31  1  0
 31 32  2  0
 27 32  1  0
 28 29  1  0
  1 33  1  0
  1 34  1  0
  3 35  1  0
  3 36  1  0
  4 37  1  0
  4 38  1  0
  6 39  1  0
  6 40  1  0
  7 41  1  0
  7 42  1  0
  8 43  1  0
  8 44  1  0
 11 45  1  0
 12 46  1  0
 13 47  1  0
 15 48  1  0
 17 49  1  0
 18 50  1  0
 21 51  1  0
 24 52  1  0
 24 53  1  0
 25 54  1  0
 25 55  1  0
 26 56  1  0
 27 57  1  0
 29 58  1  0
 30 59  1  0
 31 60  1  0
 32 61  1  0
M  END
$$$$
