
     RDKit          3D

 61 64  0  0  0  0  0  0  0  0999 V2000
   -8.0060    1.3487   -1.9688 C   0  0  0  0  0  0  0  0  0  0  0  0
   -7.6752    2.6272   -2.5282 O   0  0  0  0  0  0  0  0  0  0  0  0
   -6.8138    3.4067   -1.6852 C   0  0  0  0  0  0  0  0  0  0  0  0
   -5.9251    2.5470   -0.7774 C   0  0  0  0  0  0  0  0  0  0  0  0
   -6.7321    1.7455    0.1572 N   0  0  0  0  0  0  0  0  0  0  0  0
   -8.0188    1.3402   -0.4328 C   0  0  0  0  0  0  0  0  0  0  0  0
   -5.9853    0.6561    0.8019 C   0  0  0  0  0  0  0  0  0  0  0  0
   -5.5594   -0.5305   -0.0815 C   0  0  0  0  0  0  0  0  0  0  0  0
   -4.9390   -1.5465    0.7113 O   0  0  0  0  0  0  0  0  0  0  0  0
   -3.5755   -1.5755    0.7726 C   0  0  0  0  0  0  0  0  0  0  0  0
   -2.7128   -0.5326    0.4450 C   0  0  0  0  0  0  0  0  0  0  0  0
   -3.0401   -2.7756    1.2396 C   0  0  0  0  0  0  0  0  0  0  0  0
   -1.6579   -2.9441    1.3575 C   0  0  0  0  0  0  0  0  0  0  0  0
   -0.7756   -1.9067    1.0243 C   0  0  0  0  0  0  0  0  0  0  0  0
   -1.3268   -0.6991    0.5688 C   0  0  0  0  0  0  0  0  0  0  0  0
    0.6766   -2.0793    1.1531 C   0  0  0  0  0  0  0  0  0  0  0  0
    1.3502   -3.1420    0.5435 C   0  0  0  0  0  0  0  0  0  0  0  0
    1.4626   -1.1986    1.8945 C   0  0  0  0  0  0  0  0  0  0  0  0
    2.8065   -1.3020    2.0557 N   0  0  0  0  0  0  0  0  0  0  0  0
    3.4249   -2.3457    1.4529 C   0  0  0  0  0  0  0  0  0  0  0  0
    2.7302   -3.2803    0.6915 C   0  0  0  0  0  0  0  0  0  0  0  0
    5.8555   -3.1310   -0.4547 O   0  0  0  0  0  0  0  0  0  0  0  0
    5.6738   -2.2370    0.3693 C   0  0  0  0  0  0  0  0  0  0  0  0
    4.9095   -2.4662    1.6545 C   0  0  0  0  0  0  0  0  0  0  0  0
    6.8922   -0.5876   -0.9720 C   0  0  0  0  0  0  0  0  0  0  0  0
    6.1427   -0.9600    0.2017 N   0  0  0  0  0  0  0  0  0  0  0  0
    8.5150    1.2508   -0.3751 C   0  0  0  0  0  0  0  0  0  0  0  0
    7.2863    0.8630   -0.9281 C   0  0  0  0  0  0  0  0  0  0  0  0
    6.4136    1.8509   -1.4057 C   0  0  0  0  0  0  0  0  0  0  0  0
    6.7722    3.1989   -1.3511 C   0  0  0  0  0  0  0  0  0  0  0  0
    8.0011    3.5718   -0.8110 C   0  0  0  0  0  0  0  0  0  0  0  0
    8.8715    2.5993   -0.3207 C   0  0  0  0  0  0  0  0  0  0  0  0
   -8.9907    1.0685   -2.3546 H   0  0  0  0  0  0  0  0  0  0  0  0
   -7.2876    0.6163   -2.3522 H   0  0  0  0  0  0  0  0  0  0  0  0
   -6.1916    4.0295   -2.3376 H   0  0  0  0  0  0  0  0  0  0  0  0
   -7.4377    4.0838   -1.0907 H   0  0  0  0  0  0  0  0  0  0  0  0
   -5.3093    1.9068   -1.4157 H   0  0  0  0  0  0  0  0  0  0  0  0
   -5.2531    3.1967   -0.2075 H   0  0  0  0  0  0  0  0  0  0  0  0
   -8.7670    2.0668   -0.0929 H   0  0  0  0  0  0  0  0  0  0  0  0
   -8.3520    0.3629   -0.0606 H   0  0  0  0  0  0  0  0  0  0  0  0
   -6.5907    0.2671    1.6341 H   0  0  0  0  0  0  0  0  0  0  0  0
   -5.1003    1.0769    1.2981 H   0  0  0  0  0  0  0  0  0  0  0  0
   -4.9353   -0.2346   -0.9315 H   0  0  0  0  0  0  0  0  0  0  0  0
   -6.4508   -0.9980   -0.5146 H   0  0  0  0  0  0  0  0  0  0  0  0
   -3.0782    0.4281    0.0998 H   0  0  0  0  0  0  0  0  0  0  0  0
   -3.7035   -3.5929    1.5114 H   0  0  0  0  0  0  0  0  0  0  0  0
   -1.2760   -3.8929    1.7275 H   0  0  0  0  0  0  0  0  0  0  0  0
   -0.6757    0.1289    0.2939 H   0  0  0  0  0  0  0  0  0  0  0  0
    0.8080   -3.8664   -0.0584 H   0  0  0  0  0  0  0  0  0  0  0  0
    1.0157   -0.3545    2.4160 H   0  0  0  0  0  0  0  0  0  0  0  0
    3.2496   -4.1042    0.2105 H   0  0  0  0  0  0  0  0  0  0  0  0
    5.1584   -3.4640    2.0363 H   0  0  0  0  0  0  0  0  0  0  0  0
    5.2454   -1.7538    2.4183 H   0  0  0  0  0  0  0  0  0  0  0  0
    7.7765   -1.2281   -1.0386 H   0  0  0  0  0  0  0  0  0  0  0  0
    6.2845   -0.7976   -1.8584 H   0  0  0  0  0  0  0  0  0  0  0  0
    5.9624   -0.2564    0.9120 H   0  0  0  0  0  0  0  0  0  0  0  0
    9.2040    0.5018    0.0127 H   0  0  0  0  0  0  0  0  0  0  0  0
    5.4500    1.5732   -1.8267 H   0  0  0  0  0  0  0  0  0  0  0  0
    6.0938    3.9577   -1.7321 H   0  0  0  0  0  0  0  0  0  0  0  0
    8.2809    4.6211   -0.7722 H   0  0  0  0  0  0  0  0  0  0  0  0
    9.8294    2.8912    0.1019 H   0  0  0  0  0  0  0  0  0  0  0  0
  1  2  1  0
  2  3  1  0
  3  4  1  0
  4  5  1  0
  5  6  1  0
  1  6  1  0
  7  8  1  0
  5  7  1  0
  9 10  1  0
 10 11  2  0
  8  9  1  0
 12 13  2  0
 13 14  1  0
 14 15  2  0
 10 12  1  0
 11 15  1  0
 16 17  2  0
 16 14  1  0
 18 19  2  0
 19 20  1  0
 20 21  2  0
 17 21  1  0
 16 18  1  0
 22 23  2  0
 23 24  1  0
 20 24  1  0
 25 26  1  0
 23 26  1  0
 27 28  2  0
 25 28  1  0
 29 30  2  0
 30 31  1  0
 31 32  2  0
 27 32  1  0
 28 29  1  0
  1 33  1  0
  1 34  1  0
  3 35  1  0
  3 36  1  0
  4 37  1  0
  4 38  1  0
  6 39  1  0
  6 40  1  0
  7 41  1  0
  7 42  1  0
  8 43  1  0
  8 44  1  0
 11 45  1  0
 12 46  1  0
 13 47  1  0
 15 48  1  0
 17 49  1  0
 18 50  1  0
 21 51  1  0
 24 52  1  0
 24 53  1  0
 25 54  1  0
 25 55  1  0
 26 56  1  0
 27 57  1  0
 29 58  1  0
 30 59  1  0
 31 60  1  0
 32 61  1  0
M  END
$$$$
