
     RDKit          3D

 24 24  0  0  0  0  0  0  0  0999 V2000
   -3.6945    0.0222    0.7297 C   0  0  0  0  0  0  0  0  0  0  0  0
   -4.0401    1.2665    0.3507 O   0  0  0  0  0  0  0  0  0  0  0  0
   -4.1857   -0.4901    1.7210 O   0  0  0  0  0  0  0  0  0  0  0  0
    1.1769   -0.2738   -0.3489 C   0  0  0  0  0  0  0  0  0  0  0  0
   -2.6663   -0.5954   -0.1715 C   0  0  0  0  0  0  0  0  0  0  0  0
   -1.2704   -0.1062    0.1921 C   0  0  0  0  0  0  0  0  0  0  0  0
   -0.2095   -0.7524   -0.6987 C   0  0  0  0  0  0  0  0  0  0  0  0
    1.9344   -0.9404    0.6234 C   0  0  0  0  0  0  0  0  0  0  0  0
    1.7150    0.8610   -0.9703 C   0  0  0  0  0  0  0  0  0  0  0  0
    2.9917    1.3133   -0.6332 C   0  0  0  0  0  0  0  0  0  0  0  0
    3.2109   -0.4865    0.9592 C   0  0  0  0  0  0  0  0  0  0  0  0
    3.7395    0.6392    0.3303 C   0  0  0  0  0  0  0  0  0  0  0  0
   -4.6927    1.5485    1.0256 H   0  0  0  0  0  0  0  0  0  0  0  0
   -2.9173   -0.3587   -1.2118 H   0  0  0  0  0  0  0  0  0  0  0  0
   -2.7383   -1.6845   -0.0704 H   0  0  0  0  0  0  0  0  0  0  0  0
   -1.2248    0.9867    0.0987 H   0  0  0  0  0  0  0  0  0  0  0  0
   -1.0649   -0.3301    1.2470 H   0  0  0  0  0  0  0  0  0  0  0  0
   -0.4154   -0.5317   -1.7539 H   0  0  0  0  0  0  0  0  0  0  0  0
   -0.2510   -1.8452   -0.6060 H   0  0  0  0  0  0  0  0  0  0  0  0
    1.5335   -1.8175    1.1263 H   0  0  0  0  0  0  0  0  0  0  0  0
    1.1415    1.4004   -1.7207 H   0  0  0  0  0  0  0  0  0  0  0  0
    3.4020    2.1932   -1.1216 H   0  0  0  0  0  0  0  0  0  0  0  0
    3.7922   -1.0107    1.7131 H   0  0  0  0  0  0  0  0  0  0  0  0
    4.7332    0.9923    0.5927 H   0  0  0  0  0  0  0  0  0  0  0  0
  2  1  1  0
  3  1  2  0
  4  7  1  0
  5  1  1  0
  6  5  1  0
  7  6  1  0
  8  4  2  0
  9  4  1  0
 10  9  2  0
 11  8  1  0
 12 11  2  0
 12 10  1  0
  2 13  1  0
  5 14  1  0
  5 15  1  0
  6 16  1  0
  6 17  1  0
  7 18  1  0
  7 19  1  0
  8 20  1  0
  9 21  1  0
 10 22  1  0
 11 23  1  0
 12 24  1  0
M  END
$$$$
