
     RDKit          3D

 24 24  0  0  0  0  0  0  0  0999 V2000
    3.4157    0.3139   -0.1090 C   0  0  0  0  0  0  0  0  0  0  0  0
    4.6717   -0.1042   -0.3611 O   0  0  0  0  0  0  0  0  0  0  0  0
    3.0645    1.4396   -0.4155 O   0  0  0  0  0  0  0  0  0  0  0  0
   -1.0681   -0.0782   -0.4930 C   0  0  0  0  0  0  0  0  0  0  0  0
    2.5991   -0.7499    0.5752 C   0  0  0  0  0  0  0  0  0  0  0  0
    1.1234   -0.3748    0.7010 C   0  0  0  0  0  0  0  0  0  0  0  0
    0.3902   -0.4329   -0.6432 C   0  0  0  0  0  0  0  0  0  0  0  0
   -1.4761    1.2621   -0.5277 C   0  0  0  0  0  0  0  0  0  0  0  0
   -2.0290   -1.0772   -0.2894 C   0  0  0  0  0  0  0  0  0  0  0  0
   -3.3750   -0.7415   -0.1345 C   0  0  0  0  0  0  0  0  0  0  0  0
   -2.8222    1.5957   -0.3724 C   0  0  0  0  0  0  0  0  0  0  0  0
   -3.7713    0.5941   -0.1769 C   0  0  0  0  0  0  0  0  0  0  0  0
    5.0988    0.6680   -0.7881 H   0  0  0  0  0  0  0  0  0  0  0  0
    2.7013   -1.6892    0.0209 H   0  0  0  0  0  0  0  0  0  0  0  0
    3.0186   -0.8880    1.5781 H   0  0  0  0  0  0  0  0  0  0  0  0
    1.0257    0.6252    1.1423 H   0  0  0  0  0  0  0  0  0  0  0  0
    0.6465   -1.0727    1.4012 H   0  0  0  0  0  0  0  0  0  0  0  0
    0.4785   -1.4376   -1.0760 H   0  0  0  0  0  0  0  0  0  0  0  0
    0.8493    0.2474   -1.3704 H   0  0  0  0  0  0  0  0  0  0  0  0
   -0.7438    2.0536   -0.6750 H   0  0  0  0  0  0  0  0  0  0  0  0
   -1.7347   -2.1232   -0.2501 H   0  0  0  0  0  0  0  0  0  0  0  0
   -4.1146   -1.5224    0.0206 H   0  0  0  0  0  0  0  0  0  0  0  0
   -3.1292    2.6377   -0.4027 H   0  0  0  0  0  0  0  0  0  0  0  0
   -4.8193    0.8547   -0.0559 H   0  0  0  0  0  0  0  0  0  0  0  0
  2  1  1  0
  3  1  2  0
  4  7  1  0
  5  1  1  0
  6  5  1  0
  7  6  1  0
  8  4  2  0
  9  4  1  0
 10  9  2  0
 11  8  1  0
 12 11  2  0
 12 10  1  0
  2 13  1  0
  5 14  1  0
  5 15  1  0
  6 16  1  0
  6 17  1  0
  7 18  1  0
  7 19  1  0
  8 20  1  0
  9 21  1  0
 10 22  1  0
 11 23  1  0
 12 24  1  0
M  END
$$$$
