
     RDKit          3D

 24 24  0  0  0  0  0  0  0  0999 V2000
    1.9201    1.0256   -0.2542 C   0  0  0  0  0  0  0  0  0  0  0  0
    1.8643    0.9438   -1.5967 O   0  0  0  0  0  0  0  0  0  0  0  0
    1.6567    2.0690    0.3204 O   0  0  0  0  0  0  0  0  0  0  0  0
   -0.7789   -0.6164    0.2716 C   0  0  0  0  0  0  0  0  0  0  0  0
    2.3596   -0.2621    0.3871 C   0  0  0  0  0  0  0  0  0  0  0  0
    1.4477   -0.6761    1.5421 C   0  0  0  0  0  0  0  0  0  0  0  0
    0.1868   -1.4296    1.0958 C   0  0  0  0  0  0  0  0  0  0  0  0
   -1.4524    0.4773    0.8319 C   0  0  0  0  0  0  0  0  0  0  0  0
   -1.0198   -0.9445   -1.0696 C   0  0  0  0  0  0  0  0  0  0  0  0
   -1.9088   -0.1887   -1.8361 C   0  0  0  0  0  0  0  0  0  0  0  0
   -2.3397    1.2330    0.0637 C   0  0  0  0  0  0  0  0  0  0  0  0
   -2.5677    0.9003   -1.2698 C   0  0  0  0  0  0  0  0  0  0  0  0
    1.5020    1.8142   -1.8645 H   0  0  0  0  0  0  0  0  0  0  0  0
    3.3783   -0.0953    0.7557 H   0  0  0  0  0  0  0  0  0  0  0  0
    2.4160   -1.0590   -0.3629 H   0  0  0  0  0  0  0  0  0  0  0  0
    1.1774    0.1931    2.1534 H   0  0  0  0  0  0  0  0  0  0  0  0
    2.0165   -1.3505    2.1948 H   0  0  0  0  0  0  0  0  0  0  0  0
    0.4824   -2.3324    0.5461 H   0  0  0  0  0  0  0  0  0  0  0  0
   -0.3470   -1.7879    1.9857 H   0  0  0  0  0  0  0  0  0  0  0  0
   -1.2842    0.7540    1.8704 H   0  0  0  0  0  0  0  0  0  0  0  0
   -0.5115   -1.7883   -1.5308 H   0  0  0  0  0  0  0  0  0  0  0  0
   -2.0866   -0.4510   -2.8757 H   0  0  0  0  0  0  0  0  0  0  0  0
   -2.8513    2.0829    0.5078 H   0  0  0  0  0  0  0  0  0  0  0  0
   -3.2599    1.4885   -1.8661 H   0  0  0  0  0  0  0  0  0  0  0  0
  2  1  1  0
  3  1  2  0
  4  7  1  0
  5  1  1  0
  6  5  1  0
  7  6  1  0
  8  4  2  0
  9  4  1  0
 10  9  2  0
 11  8  1  0
 12 11  2  0
 12 10  1  0
  2 13  1  0
  5 14  1  0
  5 15  1  0
  6 16  1  0
  6 17  1  0
  7 18  1  0
  7 19  1  0
  8 20  1  0
  9 21  1  0
 10 22  1  0
 11 23  1  0
 12 24  1  0
M  END
$$$$
