
     RDKit          3D

 24 24  0  0  0  0  0  0  0  0999 V2000
   -3.3720    0.4449   -0.5326 C   0  0  0  0  0  0  0  0  0  0  0  0
   -4.4694    0.7572   -1.2496 O   0  0  0  0  0  0  0  0  0  0  0  0
   -3.2057    0.9121    0.5803 O   0  0  0  0  0  0  0  0  0  0  0  0
    1.1076    0.2348    0.0103 C   0  0  0  0  0  0  0  0  0  0  0  0
   -2.4756   -0.5130   -1.2712 C   0  0  0  0  0  0  0  0  0  0  0  0
   -1.1378   -0.7350   -0.5675 C   0  0  0  0  0  0  0  0  0  0  0  0
   -0.2136    0.4825   -0.6739 C   0  0  0  0  0  0  0  0  0  0  0  0
    1.2461    0.4699    1.3848 C   0  0  0  0  0  0  0  0  0  0  0  0
    2.2035   -0.2584   -0.7098 C   0  0  0  0  0  0  0  0  0  0  0  0
    3.4189   -0.5014   -0.0678 C   0  0  0  0  0  0  0  0  0  0  0  0
    2.4620    0.2261    2.0249 C   0  0  0  0  0  0  0  0  0  0  0  0
    3.5482   -0.2584    1.2986 C   0  0  0  0  0  0  0  0  0  0  0  0
   -4.9700    1.3657   -0.6662 H   0  0  0  0  0  0  0  0  0  0  0  0
   -3.0060   -1.4694   -1.3387 H   0  0  0  0  0  0  0  0  0  0  0  0
   -2.3075   -0.1339   -2.2852 H   0  0  0  0  0  0  0  0  0  0  0  0
   -1.3052   -0.9920    0.4862 H   0  0  0  0  0  0  0  0  0  0  0  0
   -0.6446   -1.6020   -1.0255 H   0  0  0  0  0  0  0  0  0  0  0  0
   -0.0375    0.7292   -1.7287 H   0  0  0  0  0  0  0  0  0  0  0  0
   -0.6821    1.3706   -0.2332 H   0  0  0  0  0  0  0  0  0  0  0  0
    0.4039    0.8437    1.9639 H   0  0  0  0  0  0  0  0  0  0  0  0
    2.1169   -0.4566   -1.7755 H   0  0  0  0  0  0  0  0  0  0  0  0
    4.2650   -0.8817   -0.6339 H   0  0  0  0  0  0  0  0  0  0  0  0
    2.5602    0.4133    3.0909 H   0  0  0  0  0  0  0  0  0  0  0  0
    4.4946   -0.4481    1.7977 H   0  0  0  0  0  0  0  0  0  0  0  0
  2  1  1  0
  3  1  2  0
  4  7  1  0
  5  1  1  0
  6  5  1  0
  7  6  1  0
  8  4  2  0
  9  4  1  0
 10  9  2  0
 11  8  1  0
 12 11  2  0
 12 10  1  0
  2 13  1  0
  5 14  1  0
  5 15  1  0
  6 16  1  0
  6 17  1  0
  7 18  1  0
  7 19  1  0
  8 20  1  0
  9 21  1  0
 10 22  1  0
 11 23  1  0
 12 24  1  0
M  END
$$$$
