
     RDKit          3D

 24 24  0  0  0  0  0  0  0  0999 V2000
    3.6326   -0.3297   -0.9236 C   0  0  0  0  0  0  0  0  0  0  0  0
    3.6652    0.1964   -2.1619 O   0  0  0  0  0  0  0  0  0  0  0  0
    4.5281   -0.1105   -0.1258 O   0  0  0  0  0  0  0  0  0  0  0  0
   -1.2056   -0.2128    0.3255 C   0  0  0  0  0  0  0  0  0  0  0  0
    2.4032   -1.1525   -0.6738 C   0  0  0  0  0  0  0  0  0  0  0  0
    1.2227   -0.2590   -0.3161 C   0  0  0  0  0  0  0  0  0  0  0  0
   -0.0294   -1.0874   -0.0281 C   0  0  0  0  0  0  0  0  0  0  0  0
   -1.4399    0.1591    1.6560 C   0  0  0  0  0  0  0  0  0  0  0  0
   -2.0632    0.2637   -0.6750 C   0  0  0  0  0  0  0  0  0  0  0  0
   -3.1417    1.0874   -0.3486 C   0  0  0  0  0  0  0  0  0  0  0  0
   -2.5189    0.9830    1.9804 C   0  0  0  0  0  0  0  0  0  0  0  0
   -3.3699    1.4459    0.9786 C   0  0  0  0  0  0  0  0  0  0  0  0
    4.4980    0.7132   -2.1793 H   0  0  0  0  0  0  0  0  0  0  0  0
    2.6247   -1.8532    0.1395 H   0  0  0  0  0  0  0  0  0  0  0  0
    2.1943   -1.7584   -1.5629 H   0  0  0  0  0  0  0  0  0  0  0  0
    1.0280    0.4438   -1.1365 H   0  0  0  0  0  0  0  0  0  0  0  0
    1.4775    0.3558    0.5571 H   0  0  0  0  0  0  0  0  0  0  0  0
    0.1613   -1.7897    0.7933 H   0  0  0  0  0  0  0  0  0  0  0  0
   -0.2836   -1.7047   -0.8992 H   0  0  0  0  0  0  0  0  0  0  0  0
   -0.7817   -0.1903    2.4483 H   0  0  0  0  0  0  0  0  0  0  0  0
   -1.8952   -0.0036   -1.7158 H   0  0  0  0  0  0  0  0  0  0  0  0
   -3.8030    1.4508   -1.1307 H   0  0  0  0  0  0  0  0  0  0  0  0
   -2.6941    1.2650    3.0152 H   0  0  0  0  0  0  0  0  0  0  0  0
   -4.2093    2.0878    1.2319 H   0  0  0  0  0  0  0  0  0  0  0  0
  2  1  1  0
  3  1  2  0
  4  7  1  0
  5  1  1  0
  6  5  1  0
  7  6  1  0
  8  4  2  0
  9  4  1  0
 10  9  2  0
 11  8  1  0
 12 11  2  0
 12 10  1  0
  2 13  1  0
  5 14  1  0
  5 15  1  0
  6 16  1  0
  6 17  1  0
  7 18  1  0
  7 19  1  0
  8 20  1  0
  9 21  1  0
 10 22  1  0
 11 23  1  0
 12 24  1  0
M  END
$$$$
