
     RDKit          3D

 24 24  0  0  0  0  0  0  0  0999 V2000
    3.1998    0.4325   -0.8679 C   0  0  0  0  0  0  0  0  0  0  0  0
    3.5384    0.6331   -2.1570 O   0  0  0  0  0  0  0  0  0  0  0  0
    3.9536    0.7678    0.0292 O   0  0  0  0  0  0  0  0  0  0  0  0
   -1.0265   -0.4779    0.4602 C   0  0  0  0  0  0  0  0  0  0  0  0
    1.8497   -0.2183   -0.7380 C   0  0  0  0  0  0  0  0  0  0  0  0
    1.5046   -0.5037    0.7244 C   0  0  0  0  0  0  0  0  0  0  0  0
    0.1864   -1.2657    0.8893 C   0  0  0  0  0  0  0  0  0  0  0  0
   -1.7206   -0.8186   -0.7086 C   0  0  0  0  0  0  0  0  0  0  0  0
   -1.4734    0.6107    1.2217 C   0  0  0  0  0  0  0  0  0  0  0  0
   -2.5902    1.3453    0.8202 C   0  0  0  0  0  0  0  0  0  0  0  0
   -2.8373   -0.0827   -1.1086 C   0  0  0  0  0  0  0  0  0  0  0  0
   -3.2714    0.9989   -0.3449 C   0  0  0  0  0  0  0  0  0  0  0  0
    4.4178    1.0628   -2.1066 H   0  0  0  0  0  0  0  0  0  0  0  0
    1.8672   -1.1562   -1.3041 H   0  0  0  0  0  0  0  0  0  0  0  0
    1.1097    0.4559   -1.1814 H   0  0  0  0  0  0  0  0  0  0  0  0
    1.4766    0.4377    1.2875 H   0  0  0  0  0  0  0  0  0  0  0  0
    2.3067   -1.1046    1.1721 H   0  0  0  0  0  0  0  0  0  0  0  0
    0.0599   -1.5422    1.9440 H   0  0  0  0  0  0  0  0  0  0  0  0
    0.2366   -2.2129    0.3377 H   0  0  0  0  0  0  0  0  0  0  0  0
   -1.3955   -1.6590   -1.3176 H   0  0  0  0  0  0  0  0  0  0  0  0
   -0.9533    0.8925    2.1346 H   0  0  0  0  0  0  0  0  0  0  0  0
   -2.9288    2.1877    1.4175 H   0  0  0  0  0  0  0  0  0  0  0  0
   -3.3689   -0.3540   -2.0169 H   0  0  0  0  0  0  0  0  0  0  0  0
   -4.1411    1.5709   -0.6568 H   0  0  0  0  0  0  0  0  0  0  0  0
  2  1  1  0
  3  1  2  0
  4  7  1  0
  5  1  1  0
  6  5  1  0
  7  6  1  0
  8  4  2  0
  9  4  1  0
 10  9  2  0
 11  8  1  0
 12 11  2  0
 12 10  1  0
  2 13  1  0
  5 14  1  0
  5 15  1  0
  6 16  1  0
  6 17  1  0
  7 18  1  0
  7 19  1  0
  8 20  1  0
  9 21  1  0
 10 22  1  0
 11 23  1  0
 12 24  1  0
M  END
$$$$
