
     RDKit          3D

 73 74  0  0  0  0  0  0  0  0999 V2000
   -1.3795    0.1652    0.6551 C   0  0  0  0  0  0  0  0  0  0  0  0
    1.4151   -0.3126   -0.5086 C   0  0  0  0  0  0  0  0  0  0  0  0
   -0.8010    0.8456   -0.5071 C   0  0  0  0  0  0  0  0  0  0  0  0
    0.4351    0.6644   -0.9915 C   0  0  0  0  0  0  0  0  0  0  0  0
   -2.5471   -0.1638    0.7538 O   0  0  0  0  0  0  0  0  0  0  0  0
    2.6168   -0.1245   -0.4666 O   0  0  0  0  0  0  0  0  0  0  0  0
   -0.5162    0.0500    1.6747 O   0  0  0  0  0  0  0  0  0  0  0  0
    0.8688   -1.5054   -0.2308 O   0  0  0  0  0  0  0  0  0  0  0  0
   -2.1847    0.3187   -0.2172 N   0  0  0  0  0  0  0  0  0  0  0  0
   -2.2945    0.5647    1.1841 C   0  0  0  0  0  0  0  0  0  0  0  0
   -5.0561    1.0180    0.8909 S   0  0  0  0  0  0  0  0  0  0  0  0
   -3.2082    0.5565   -1.1813 C   0  0  0  0  0  0  0  0  0  0  0  0
   -3.5247    0.9083    1.7828 C   0  0  0  0  0  0  0  0  0  0  0  0
   -4.5226    0.8946   -0.7989 C   0  0  0  0  0  0  0  0  0  0  0  0
   -1.1784    0.5023    2.0493 C   0  0  0  0  0  0  0  0  0  0  0  0
    2.0927   -0.7190   -0.6473 N   0  0  0  0  0  0  0  0  0  0  0  0
    4.5429   -1.7068    0.7782 N   0  0  0  0  0  0  0  0  0  0  0  0
   -3.6164    1.1633    3.1670 C   0  0  0  0  0  0  0  0  0  0  0  0
   -0.9278   -0.3102   -0.6972 C   0  0  0  0  0  0  0  0  0  0  0  0
   -1.2773    0.7607    3.4199 C   0  0  0  0  0  0  0  0  0  0  0  0
    3.8767   -2.4618   -0.3003 C   0  0  0  0  0  0  0  0  0  0  0  0
    3.5678   -0.7843    1.3917 C   0  0  0  0  0  0  0  0  0  0  0  0
    3.0817   -1.5973   -1.3081 C   0  0  0  0  0  0  0  0  0  0  0  0
    2.7740    0.0882    0.3885 C   0  0  0  0  0  0  0  0  0  0  0  0
    0.1099    0.7491   -1.1020 C   0  0  0  0  0  0  0  0  0  0  0  0
   -2.4955    1.0912    3.9861 C   0  0  0  0  0  0  0  0  0  0  0  0
    1.4007    0.1182   -1.6369 C   0  0  0  0  0  0  0  0  0  0  0  0
    0.1305    0.6738    4.4074 Cl  0  0  0  0  0  0  0  0  0  0  0  0
   -2.9659    0.4917   -2.5733 C   0  0  0  0  0  0  0  0  0  0  0  0
   -5.5228    1.1354   -1.7630 C   0  0  0  0  0  0  0  0  0  0  0  0
    5.7253   -0.9993    0.2932 C   0  0  0  0  0  0  0  0  0  0  0  0
   -3.9621    0.7342   -3.5277 C   0  0  0  0  0  0  0  0  0  0  0  0
   -5.2453    1.0556   -3.1220 C   0  0  0  0  0  0  0  0  0  0  0  0
    1.5141    0.2461   -0.0750 C   0  0  0  0  0  0  0  0  0  0  0  0
   -1.5311   -0.0397    0.1138 C   0  0  0  0  0  0  0  0  0  0  0  0
    0.7508   -0.9914   -0.2594 C   0  0  0  0  0  0  0  0  0  0  0  0
   -0.5771   -1.1233   -0.1381 C   0  0  0  0  0  0  0  0  0  0  0  0
    2.5025    0.5514   -0.7162 O   0  0  0  0  0  0  0  0  0  0  0  0
   -2.5362   -0.1464    0.7918 O   0  0  0  0  0  0  0  0  0  0  0  0
    1.0912    0.9683    0.9727 O   0  0  0  0  0  0  0  0  0  0  0  0
   -1.2583    1.0691   -0.5893 O   0  0  0  0  0  0  0  0  0  0  0  0
   -1.4739    1.5480   -0.9857 H   0  0  0  0  0  0  0  0  0  0  0  0
    0.7901    1.2738   -1.8148 H   0  0  0  0  0  0  0  0  0  0  0  0
   -1.0406   -0.3872    2.3768 H   0  0  0  0  0  0  0  0  0  0  0  0
    1.6322   -2.0535    0.0447 H   0  0  0  0  0  0  0  0  0  0  0  0
   -0.1901    0.2609    1.6762 H   0  0  0  0  0  0  0  0  0  0  0  0
   -4.5748    1.4205    3.6148 H   0  0  0  0  0  0  0  0  0  0  0  0
   -1.1235   -0.9911   -1.5354 H   0  0  0  0  0  0  0  0  0  0  0  0
   -0.5219   -0.9945    0.0577 H   0  0  0  0  0  0  0  0  0  0  0  0
    4.6087   -3.0752   -0.8403 H   0  0  0  0  0  0  0  0  0  0  0  0
    3.1844   -3.1753    0.1668 H   0  0  0  0  0  0  0  0  0  0  0  0
    4.0679   -0.1384    2.1241 H   0  0  0  0  0  0  0  0  0  0  0  0
    2.8530   -1.3847    1.9706 H   0  0  0  0  0  0  0  0  0  0  0  0
    3.7791   -1.0036   -1.9130 H   0  0  0  0  0  0  0  0  0  0  0  0
    2.5593   -2.2772   -1.9923 H   0  0  0  0  0  0  0  0  0  0  0  0
    3.4513    0.8162   -0.0761 H   0  0  0  0  0  0  0  0  0  0  0  0
    2.0386    0.6593    0.9638 H   0  0  0  0  0  0  0  0  0  0  0  0
    0.3285    1.4228   -0.2670 H   0  0  0  0  0  0  0  0  0  0  0  0
   -0.3018    1.3945   -1.8868 H   0  0  0  0  0  0  0  0  0  0  0  0
   -2.5829    1.2920    5.0496 H   0  0  0  0  0  0  0  0  0  0  0  0
    1.1243   -0.4939   -2.5058 H   0  0  0  0  0  0  0  0  0  0  0  0
    2.0659    0.9054   -2.0142 H   0  0  0  0  0  0  0  0  0  0  0  0
   -1.9827    0.2640   -2.9705 H   0  0  0  0  0  0  0  0  0  0  0  0
   -6.5347    1.3881   -1.4514 H   0  0  0  0  0  0  0  0  0  0  0  0
    5.5033   -0.2610   -0.4837 H   0  0  0  0  0  0  0  0  0  0  0  0
    6.2251   -0.4822    1.1200 H   0  0  0  0  0  0  0  0  0  0  0  0
    6.4536   -1.7103   -0.1126 H   0  0  0  0  0  0  0  0  0  0  0  0
   -3.7246    0.6730   -4.5867 H   0  0  0  0  0  0  0  0  0  0  0  0
   -6.0256    1.2448   -3.8536 H   0  0  0  0  0  0  0  0  0  0  0  0
    1.3600   -1.8498   -0.5187 H   0  0  0  0  0  0  0  0  0  0  0  0
   -1.0353   -2.1020   -0.2242 H   0  0  0  0  0  0  0  0  0  0  0  0
    1.7011    1.7344    0.9900 H   0  0  0  0  0  0  0  0  0  0  0  0
   -1.9817    1.6832   -0.3474 H   0  0  0  0  0  0  0  0  0  0  0  0
  2  4  1  0
  3  1  1  0
  4  3  2  0
  5  1  2  0
  6  2  2  0
  7  1  1  0
  8  2  1  0
 10  9  1  0
 11 14  1  0
 12  9  1  0
 13 10  2  0
 14 12  2  0
 15 10  1  0
 16 27  1  0
 17 22  1  0
 18 13  1  0
 19  9  1  0
 20 15  2  0
 21 23  1  0
 22 24  1  0
 23 16  1  0
 24 16  1  0
 25 19  1  0
 26 20  1  0
 27 25  1  0
 28 20  1  0
 29 12  1  0
 30 14  1  0
 31 17  1  0
 32 29  2  0
 33 30  2  0
 11 13  1  0
 32 33  1  0
 26 18  2  0
 17 21  1  0
 35 37  1  0
 36 34  1  0
 37 36  2  0
 38 34  2  0
 39 35  2  0
 40 34  1  0
 41 35  1  0
  3 42  1  0
  4 43  1  0
  7 44  1  0
  8 45  1  0
 15 46  1  0
 18 47  1  0
 19 48  1  0
 19 49  1  0
 21 50  1  0
 21 51  1  0
 22 52  1  0
 22 53  1  0
 23 54  1  0
 23 55  1  0
 24 56  1  0
 24 57  1  0
 25 58  1  0
 25 59  1  0
 26 60  1  0
 27 61  1  0
 27 62  1  0
 29 63  1  0
 30 64  1  0
 31 65  1  0
 31 66  1  0
 31 67  1  0
 32 68  1  0
 33 69  1  0
 36 70  1  0
 37 71  1  0
 40 72  1  0
 41 73  1  0
M  END
$$$$
