
     RDKit          3D

 73 74  0  0  0  0  0  0  0  0999 V2000
    1.5904   -0.4858    0.0190 C   0  0  0  0  0  0  0  0  0  0  0  0
   -1.2135    0.4948    0.4488 C   0  0  0  0  0  0  0  0  0  0  0  0
    0.4122   -1.0032   -0.6801 C   0  0  0  0  0  0  0  0  0  0  0  0
   -0.8345   -0.5393   -0.5230 C   0  0  0  0  0  0  0  0  0  0  0  0
    2.4324   -1.1703    0.5680 O   0  0  0  0  0  0  0  0  0  0  0  0
   -0.6316    0.8229    1.4629 O   0  0  0  0  0  0  0  0  0  0  0  0
    1.7109    0.8420   -0.1206 O   0  0  0  0  0  0  0  0  0  0  0  0
   -2.3820    1.0468    0.0843 O   0  0  0  0  0  0  0  0  0  0  0  0
   -2.2286   -0.0425   -0.0320 N   0  0  0  0  0  0  0  0  0  0  0  0
   -3.0460    0.8763    0.6898 C   0  0  0  0  0  0  0  0  0  0  0  0
   -5.2901   -0.7541    0.2181 S   0  0  0  0  0  0  0  0  0  0  0  0
   -2.7069   -1.1193   -0.8351 C   0  0  0  0  0  0  0  0  0  0  0  0
   -4.4330    0.6697    0.8448 C   0  0  0  0  0  0  0  0  0  0  0  0
   -4.0622   -1.5076   -0.8222 C   0  0  0  0  0  0  0  0  0  0  0  0
   -2.5220    2.0568    1.2646 C   0  0  0  0  0  0  0  0  0  0  0  0
    2.3706    0.3996   -0.8880 N   0  0  0  0  0  0  0  0  0  0  0  0
    4.7114   -0.4498    0.8754 N   0  0  0  0  0  0  0  0  0  0  0  0
   -5.2321    1.5911    1.5518 C   0  0  0  0  0  0  0  0  0  0  0  0
   -0.7606    0.0524    0.1669 C   0  0  0  0  0  0  0  0  0  0  0  0
   -3.3237    2.9664    1.9617 C   0  0  0  0  0  0  0  0  0  0  0  0
    4.5204    0.9267    0.3779 C   0  0  0  0  0  0  0  0  0  0  0  0
    3.7808   -1.3923    0.2261 C   0  0  0  0  0  0  0  0  0  0  0  0
    3.7125    1.0276   -0.9357 C   0  0  0  0  0  0  0  0  0  0  0  0
    2.3814   -0.7710    0.0174 C   0  0  0  0  0  0  0  0  0  0  0  0
   -0.1050    0.9630   -0.8787 C   0  0  0  0  0  0  0  0  0  0  0  0
   -4.6804    2.7381    2.1107 C   0  0  0  0  0  0  0  0  0  0  0  0
    1.3335    1.3845   -0.5410 C   0  0  0  0  0  0  0  0  0  0  0  0
   -2.6177    4.3849    2.6353 Cl  0  0  0  0  0  0  0  0  0  0  0  0
   -1.8619   -1.8420   -1.7086 C   0  0  0  0  0  0  0  0  0  0  0  0
   -4.5238   -2.5656   -1.6311 C   0  0  0  0  0  0  0  0  0  0  0  0
    6.0910   -0.9013    0.7198 C   0  0  0  0  0  0  0  0  0  0  0  0
   -2.3255   -2.8907   -2.5129 C   0  0  0  0  0  0  0  0  0  0  0  0
   -3.6602   -3.2548   -2.4737 C   0  0  0  0  0  0  0  0  0  0  0  0
    1.3211    0.4169    0.0456 C   0  0  0  0  0  0  0  0  0  0  0  0
   -1.5931   -0.1171   -0.4392 C   0  0  0  0  0  0  0  0  0  0  0  0
    0.6560   -0.8661    0.3087 C   0  0  0  0  0  0  0  0  0  0  0  0
   -0.6352   -1.1113    0.0494 C   0  0  0  0  0  0  0  0  0  0  0  0
    0.9919    1.2885   -0.7332 O   0  0  0  0  0  0  0  0  0  0  0  0
   -2.3710   -0.2906   -1.3578 O   0  0  0  0  0  0  0  0  0  0  0  0
    2.4378    0.5041    0.7862 O   0  0  0  0  0  0  0  0  0  0  0  0
   -1.6091    0.9813    0.3291 O   0  0  0  0  0  0  0  0  0  0  0  0
    0.6137   -1.8309   -1.3490 H   0  0  0  0  0  0  0  0  0  0  0  0
   -1.6472   -0.9578   -1.1055 H   0  0  0  0  0  0  0  0  0  0  0  0
    2.5004    1.0671    0.4128 H   0  0  0  0  0  0  0  0  0  0  0  0
   -2.5510    1.7137    0.7824 H   0  0  0  0  0  0  0  0  0  0  0  0
   -1.4724    2.3121    1.1687 H   0  0  0  0  0  0  0  0  0  0  0  0
   -6.2997    1.4132    1.6702 H   0  0  0  0  0  0  0  0  0  0  0  0
   -0.5307    0.4060    1.1802 H   0  0  0  0  0  0  0  0  0  0  0  0
   -0.3141   -0.9463    0.1616 H   0  0  0  0  0  0  0  0  0  0  0  0
    5.4792    1.4450    0.2510 H   0  0  0  0  0  0  0  0  0  0  0  0
    3.9841    1.4838    1.1566 H   0  0  0  0  0  0  0  0  0  0  0  0
    3.6827   -2.2842    0.8562 H   0  0  0  0  0  0  0  0  0  0  0  0
    4.1665   -1.7265   -0.7469 H   0  0  0  0  0  0  0  0  0  0  0  0
    3.6547    2.0771   -1.2496 H   0  0  0  0  0  0  0  0  0  0  0  0
    4.2813    0.5269   -1.7308 H   0  0  0  0  0  0  0  0  0  0  0  0
    1.9852   -0.5071    1.0068 H   0  0  0  0  0  0  0  0  0  0  0  0
    1.7291   -1.5413   -0.4074 H   0  0  0  0  0  0  0  0  0  0  0  0
   -0.1298    0.5031   -1.8729 H   0  0  0  0  0  0  0  0  0  0  0  0
   -0.6986    1.8803   -0.9804 H   0  0  0  0  0  0  0  0  0  0  0  0
   -5.3101    3.4388    2.6509 H   0  0  0  0  0  0  0  0  0  0  0  0
    1.4122    1.7001    0.5071 H   0  0  0  0  0  0  0  0  0  0  0  0
    1.5107    2.2871   -1.1415 H   0  0  0  0  0  0  0  0  0  0  0  0
   -0.8083   -1.6029   -1.8091 H   0  0  0  0  0  0  0  0  0  0  0  0
   -5.5717   -2.8587   -1.6048 H   0  0  0  0  0  0  0  0  0  0  0  0
    6.2129   -1.9134    1.1215 H   0  0  0  0  0  0  0  0  0  0  0  0
    6.4088   -0.9044   -0.3291 H   0  0  0  0  0  0  0  0  0  0  0  0
    6.7721   -0.2555    1.2851 H   0  0  0  0  0  0  0  0  0  0  0  0
   -1.6363   -3.4132   -3.1716 H   0  0  0  0  0  0  0  0  0  0  0  0
   -4.0298   -4.0664   -3.0940 H   0  0  0  0  0  0  0  0  0  0  0  0
    1.2903   -1.6528    0.7003 H   0  0  0  0  0  0  0  0  0  0  0  0
   -1.0454   -2.1054    0.1787 H   0  0  0  0  0  0  0  0  0  0  0  0
    2.8073    1.3793    0.5450 H   0  0  0  0  0  0  0  0  0  0  0  0
   -2.2507    1.5732   -0.1142 H   0  0  0  0  0  0  0  0  0  0  0  0
  2  4  1  0
  3  1  1  0
  4  3  2  0
  5  1  2  0
  6  2  2  0
  7  1  1  0
  8  2  1  0
 10  9  1  0
 11 14  1  0
 12  9  1  0
 13 10  2  0
 14 12  2  0
 15 10  1  0
 16 27  1  0
 17 22  1  0
 18 13  1  0
 19  9  1  0
 20 15  2  0
 21 23  1  0
 22 24  1  0
 23 16  1  0
 24 16  1  0
 25 19  1  0
 26 20  1  0
 27 25  1  0
 28 20  1  0
 29 12  1  0
 30 14  1  0
 31 17  1  0
 32 29  2  0
 33 30  2  0
 11 13  1  0
 32 33  1  0
 26 18  2  0
 17 21  1  0
 35 37  1  0
 36 34  1  0
 37 36  2  0
 38 34  2  0
 39 35  2  0
 40 34  1  0
 41 35  1  0
  3 42  1  0
  4 43  1  0
  7 44  1  0
  8 45  1  0
 15 46  1  0
 18 47  1  0
 19 48  1  0
 19 49  1  0
 21 50  1  0
 21 51  1  0
 22 52  1  0
 22 53  1  0
 23 54  1  0
 23 55  1  0
 24 56  1  0
 24 57  1  0
 25 58  1  0
 25 59  1  0
 26 60  1  0
 27 61  1  0
 27 62  1  0
 29 63  1  0
 30 64  1  0
 31 65  1  0
 31 66  1  0
 31 67  1  0
 32 68  1  0
 33 69  1  0
 36 70  1  0
 37 71  1  0
 40 72  1  0
 41 73  1  0
M  END
$$$$
