
     RDKit          3D

110109  0  0  0  0  0  0  0  0999 V2000
    1.8321   -0.2080   -0.2137 C   0  0  0  0  0  0  0  0  0  0  0  0
   -1.9075   -0.0072    0.3972 C   0  0  0  0  0  0  0  0  0  0  0  0
    0.4177    0.1118   -0.4136 C   0  0  0  0  0  0  0  0  0  0  0  0
   -0.4724   -0.2786    0.5082 C   0  0  0  0  0  0  0  0  0  0  0  0
    2.3266   -0.8103    0.7190 O   0  0  0  0  0  0  0  0  0  0  0  0
   -2.7390   -0.3501    1.2175 O   0  0  0  0  0  0  0  0  0  0  0  0
   -2.2478    0.6714   -0.7084 O   0  0  0  0  0  0  0  0  0  0  0  0
    2.5616    0.2643   -1.2353 O   0  0  0  0  0  0  0  0  0  0  0  0
   -1.1116    4.3786    1.1277 C   0  0  0  0  0  0  0  0  0  0  0  0
   -1.1474    3.3520    2.0504 C   0  0  0  0  0  0  0  0  0  0  0  0
   -1.1057    2.0401    1.7242 N   0  0  0  0  0  0  0  0  0  0  0  0
   -1.0135    1.7025    0.4196 C   0  0  0  0  0  0  0  0  0  0  0  0
   -0.9908    2.6899   -0.5690 C   0  0  0  0  0  0  0  0  0  0  0  0
   -1.0360    4.0376   -0.2123 C   0  0  0  0  0  0  0  0  0  0  0  0
   -0.9564    0.3442    0.0575 N   0  0  0  0  0  0  0  0  0  0  0  0
   -1.3296   -0.5630    1.1619 C   0  0  0  0  0  0  0  0  0  0  0  0
    0.2518   -0.0261   -0.7145 C   0  0  0  0  0  0  0  0  0  0  0  0
    1.5769    0.1256    0.0798 C   0  0  0  0  0  0  0  0  0  0  0  0
    2.8223   -0.3068   -0.5872 N   0  0  0  0  0  0  0  0  0  0  0  0
    3.0954    0.4404   -1.8100 C   0  0  0  0  0  0  0  0  0  0  0  0
    2.8561   -1.7473   -0.8283 C   0  0  0  0  0  0  0  0  0  0  0  0
   -1.5977   -1.9888    0.7390 C   0  0  0  0  0  0  0  0  0  0  0  0
   -2.5705   -2.4467   -0.1291 C   0  0  0  0  0  0  0  0  0  0  0  0
   -2.5266   -3.8596   -0.2964 C   0  0  0  0  0  0  0  0  0  0  0  0
   -1.5190   -4.4350    0.4452 C   0  0  0  0  0  0  0  0  0  0  0  0
   -0.6427   -3.2761    1.3464 S   0  0  0  0  0  0  0  0  0  0  0  0
   -0.8174    0.6226    0.3385 N   0  0  0  0  0  0  0  0  0  0  0  0
   -1.2227    1.9692    0.2474 C   0  0  0  0  0  0  0  0  0  0  0  0
   -1.5868   -1.6801    0.9810 C   0  0  0  0  0  0  0  0  0  0  0  0
   -0.9176   -2.6803    2.2003 S   0  0  0  0  0  0  0  0  0  0  0  0
   -1.7160   -0.1875    1.1836 C   0  0  0  0  0  0  0  0  0  0  0  0
   -2.2142    2.4287    1.0424 N   0  0  0  0  0  0  0  0  0  0  0  0
   -1.1237   -4.0861    1.2494 C   0  0  0  0  0  0  0  0  0  0  0  0
   -1.9685   -2.4171   -0.1248 C   0  0  0  0  0  0  0  0  0  0  0  0
    0.6270    0.4651    0.6206 C   0  0  0  0  0  0  0  0  0  0  0  0
   -1.7002   -3.8072    0.0309 C   0  0  0  0  0  0  0  0  0  0  0  0
    2.7723   -0.4879   -0.3535 N   0  0  0  0  0  0  0  0  0  0  0  0
    1.3029   -0.3719   -0.4896 C   0  0  0  0  0  0  0  0  0  0  0  0
   -0.6246    2.8109   -0.6954 C   0  0  0  0  0  0  0  0  0  0  0  0
   -2.5951    3.7207    0.9195 C   0  0  0  0  0  0  0  0  0  0  0  0
    3.1404   -1.2830    0.8207 C   0  0  0  0  0  0  0  0  0  0  0  0
    3.3291   -1.1089   -1.5585 C   0  0  0  0  0  0  0  0  0  0  0  0
   -1.0296    4.1404   -0.8060 C   0  0  0  0  0  0  0  0  0  0  0  0
   -2.0378    4.6096    0.0212 C   0  0  0  0  0  0  0  0  0  0  0  0
    1.8270    0.1583    0.2209 C   0  0  0  0  0  0  0  0  0  0  0  0
   -1.8397   -0.5558   -0.4482 C   0  0  0  0  0  0  0  0  0  0  0  0
    0.3719    0.3158    0.2066 C   0  0  0  0  0  0  0  0  0  0  0  0
   -0.3777   -0.6238   -0.3845 C   0  0  0  0  0  0  0  0  0  0  0  0
    2.4742   -0.7513   -0.2591 O   0  0  0  0  0  0  0  0  0  0  0  0
   -2.5461   -1.3939   -0.9778 O   0  0  0  0  0  0  0  0  0  0  0  0
   -2.3582    0.5322    0.1405 O   0  0  0  0  0  0  0  0  0  0  0  0
    2.3985    1.1919    0.8564 O   0  0  0  0  0  0  0  0  0  0  0  0
   -1.8082   -0.1182    0.3966 C   0  0  0  0  0  0  0  0  0  0  0  0
    1.8081    0.1192   -0.6252 C   0  0  0  0  0  0  0  0  0  0  0  0
   -0.3746   -0.3885    0.2821 C   0  0  0  0  0  0  0  0  0  0  0  0
    0.3736    0.3881   -0.5116 C   0  0  0  0  0  0  0  0  0  0  0  0
   -2.4382    0.7585   -0.1620 O   0  0  0  0  0  0  0  0  0  0  0  0
    2.4392   -0.7581   -0.0686 O   0  0  0  0  0  0  0  0  0  0  0  0
    2.3809    0.9974   -1.4617 O   0  0  0  0  0  0  0  0  0  0  0  0
   -2.3805   -0.9975    1.2319 O   0  0  0  0  0  0  0  0  0  0  0  0
    0.1475    0.6579   -1.3092 H   0  0  0  0  0  0  0  0  0  0  0  0
   -0.1792   -0.8260    1.3987 H   0  0  0  0  0  0  0  0  0  0  0  0
   -3.2202    0.7686   -0.6324 H   0  0  0  0  0  0  0  0  0  0  0  0
    3.4807    0.0063   -1.0123 H   0  0  0  0  0  0  0  0  0  0  0  0
   -1.1482    5.4141    1.4468 H   0  0  0  0  0  0  0  0  0  0  0  0
   -1.2118    3.5576    3.1138 H   0  0  0  0  0  0  0  0  0  0  0  0
   -0.9626    2.4185   -1.6180 H   0  0  0  0  0  0  0  0  0  0  0  0
   -1.0187    4.8080   -0.9764 H   0  0  0  0  0  0  0  0  0  0  0  0
   -0.5702   -0.5389    1.9545 H   0  0  0  0  0  0  0  0  0  0  0  0
   -2.2671   -0.2145    1.6198 H   0  0  0  0  0  0  0  0  0  0  0  0
    0.2977    0.5652   -1.6357 H   0  0  0  0  0  0  0  0  0  0  0  0
    0.1448   -1.0611   -1.0563 H   0  0  0  0  0  0  0  0  0  0  0  0
    1.7039    1.1760    0.3716 H   0  0  0  0  0  0  0  0  0  0  0  0
    1.5004   -0.4188    1.0286 H   0  0  0  0  0  0  0  0  0  0  0  0
    2.3779    0.2227   -2.6072 H   0  0  0  0  0  0  0  0  0  0  0  0
    3.0859    1.5190   -1.6171 H   0  0  0  0  0  0  0  0  0  0  0  0
    4.0961    0.2014   -2.1861 H   0  0  0  0  0  0  0  0  0  0  0  0
    3.8479   -2.0492   -1.1832 H   0  0  0  0  0  0  0  0  0  0  0  0
    2.6768   -2.3009    0.1001 H   0  0  0  0  0  0  0  0  0  0  0  0
    2.1200   -2.0673   -1.5728 H   0  0  0  0  0  0  0  0  0  0  0  0
   -3.2758   -1.7873   -0.6225 H   0  0  0  0  0  0  0  0  0  0  0  0
   -3.1959   -4.4243   -0.9332 H   0  0  0  0  0  0  0  0  0  0  0  0
   -1.2564   -5.4817    0.5061 H   0  0  0  0  0  0  0  0  0  0  0  0
   -2.7653    0.0422    0.9465 H   0  0  0  0  0  0  0  0  0  0  0  0
   -1.5684    0.0708    2.2418 H   0  0  0  0  0  0  0  0  0  0  0  0
   -0.8161   -5.0500    1.6314 H   0  0  0  0  0  0  0  0  0  0  0  0
   -2.4153   -1.9684   -1.0047 H   0  0  0  0  0  0  0  0  0  0  0  0
    0.7626   -0.0141    1.5965 H   0  0  0  0  0  0  0  0  0  0  0  0
    1.1439    1.4307    0.7029 H   0  0  0  0  0  0  0  0  0  0  0  0
   -1.9197   -4.5621   -0.7142 H   0  0  0  0  0  0  0  0  0  0  0  0
    0.8488   -1.3683   -0.5442 H   0  0  0  0  0  0  0  0  0  0  0  0
    1.0778    0.1187   -1.4457 H   0  0  0  0  0  0  0  0  0  0  0  0
    0.1476    2.4336   -1.3559 H   0  0  0  0  0  0  0  0  0  0  0  0
   -3.3927    4.0298    1.5886 H   0  0  0  0  0  0  0  0  0  0  0  0
    2.6925   -2.2823    0.8018 H   0  0  0  0  0  0  0  0  0  0  0  0
    4.2284   -1.3952    0.8823 H   0  0  0  0  0  0  0  0  0  0  0  0
    2.8391   -0.7839    1.7457 H   0  0  0  0  0  0  0  0  0  0  0  0
    4.4214   -1.1666   -1.4923 H   0  0  0  0  0  0  0  0  0  0  0  0
    2.9378   -2.1190   -1.7231 H   0  0  0  0  0  0  0  0  0  0  0  0
    3.1042   -0.5041   -2.4436 H   0  0  0  0  0  0  0  0  0  0  0  0
   -0.5632    4.7950   -1.5358 H   0  0  0  0  0  0  0  0  0  0  0  0
   -2.3808    5.6360   -0.0350 H   0  0  0  0  0  0  0  0  0  0  0  0
   -0.0433    1.1950    0.6832 H   0  0  0  0  0  0  0  0  0  0  0  0
    0.0596   -1.4976   -0.8574 H   0  0  0  0  0  0  0  0  0  0  0  0
   -3.3245    0.4290    0.0113 H   0  0  0  0  0  0  0  0  0  0  0  0
    3.3583    1.0002    0.8080 H   0  0  0  0  0  0  0  0  0  0  0  0
    0.0328   -1.2162    0.8507 H   0  0  0  0  0  0  0  0  0  0  0  0
   -0.0333    1.2158   -1.0810 H   0  0  0  0  0  0  0  0  0  0  0  0
    3.3262    0.7386   -1.4722 H   0  0  0  0  0  0  0  0  0  0  0  0
   -3.3259   -0.7391    1.2395 H   0  0  0  0  0  0  0  0  0  0  0  0
  2  4  1  0
  3  1  1  0
  4  3  2  0
  5  1  2  0
  6  2  2  0
  7  2  1  0
  8  1  1  0
 15 17  1  0
 12 15  1  0
 17 18  1  0
 11 12  1  0
 18 19  1  0
 15 16  1  0
 19 20  1  0
 19 21  1  0
 16 22  1  0
 23 24  1  0
 12 13  2  0
 10 11  2  0
 13 14  1  0
 22 23  2  0
 24 25  2  0
 25 26  1  0
 26 22  1  0
 14  9  2  0
  9 10  1  0
 28 27  1  0
 29 31  1  0
 30 29  1  0
 31 27  1  0
 32 28  2  0
 33 30  1  0
 34 29  2  0
 35 27  1  0
 36 34  1  0
 37 38  1  0
 38 35  1  0
 39 28  1  0
 40 32  1  0
 41 37  1  0
 42 37  1  0
 43 39  2  0
 44 40  2  0
 36 33  2  0
 43 44  1  0
 46 48  1  0
 47 45  1  0
 48 47  2  0
 49 45  2  0
 50 46  2  0
 51 46  1  0
 52 45  1  0
 54 56  1  0
 55 53  1  0
 56 55  2  0
 57 53  2  0
 58 54  2  0
 59 54  1  0
 60 53  1  0
  3 61  1  0
  4 62  1  0
  7 63  1  0
  8 64  1  0
  9 65  1  0
 10 66  1  0
 13 67  1  0
 14 68  1  0
 16 69  1  0
 16 70  1  0
 17 71  1  0
 17 72  1  0
 18 73  1  0
 18 74  1  0
 20 75  1  0
 20 76  1  0
 20 77  1  0
 21 78  1  0
 21 79  1  0
 21 80  1  0
 23 81  1  0
 24 82  1  0
 25 83  1  0
 31 84  1  0
 31 85  1  0
 33 86  1  0
 34 87  1  0
 35 88  1  0
 35 89  1  0
 36 90  1  0
 38 91  1  0
 38 92  1  0
 39 93  1  0
 40 94  1  0
 41 95  1  0
 41 96  1  0
 41 97  1  0
 42 98  1  0
 42 99  1  0
 42100  1  0
 43101  1  0
 44102  1  0
 47103  1  0
 48104  1  0
 51105  1  0
 52106  1  0
 55107  1  0
 56108  1  0
 59109  1  0
 60110  1  0
M  END
$$$$
