
     RDKit          3D

110109  0  0  0  0  0  0  0  0999 V2000
   -1.8276    0.4109    0.1755 C   0  0  0  0  0  0  0  0  0  0  0  0
    1.8260   -0.4065   -0.2005 C   0  0  0  0  0  0  0  0  0  0  0  0
   -0.5831   -0.3287   -0.0292 C   0  0  0  0  0  0  0  0  0  0  0  0
    0.5829    0.3264    0.0383 C   0  0  0  0  0  0  0  0  0  0  0  0
   -1.9509    1.6067    0.3568 O   0  0  0  0  0  0  0  0  0  0  0  0
    1.9441   -1.5798   -0.4892 O   0  0  0  0  0  0  0  0  0  0  0  0
    2.8809    0.4051   -0.0475 O   0  0  0  0  0  0  0  0  0  0  0  0
   -2.8761   -0.4232    0.1336 O   0  0  0  0  0  0  0  0  0  0  0  0
   -2.9766   -3.8082   -1.2723 C   0  0  0  0  0  0  0  0  0  0  0  0
   -2.6761   -2.8578   -2.2299 C   0  0  0  0  0  0  0  0  0  0  0  0
   -1.9984   -1.7162   -1.9732 N   0  0  0  0  0  0  0  0  0  0  0  0
   -1.5856   -1.4920   -0.7044 C   0  0  0  0  0  0  0  0  0  0  0  0
   -1.8604   -2.4046    0.3172 C   0  0  0  0  0  0  0  0  0  0  0  0
   -2.5619   -3.5725    0.0309 C   0  0  0  0  0  0  0  0  0  0  0  0
   -0.8661   -0.3124   -0.3829 N   0  0  0  0  0  0  0  0  0  0  0  0
   -1.1264    0.7473   -1.3810 C   0  0  0  0  0  0  0  0  0  0  0  0
    0.5661   -0.6565   -0.2002 C   0  0  0  0  0  0  0  0  0  0  0  0
    1.2221    0.2252    0.8867 C   0  0  0  0  0  0  0  0  0  0  0  0
    2.4745   -0.3371    1.4362 N   0  0  0  0  0  0  0  0  0  0  0  0
    2.9291    0.4728    2.5725 C   0  0  0  0  0  0  0  0  0  0  0  0
    3.5255   -0.4174    0.4245 C   0  0  0  0  0  0  0  0  0  0  0  0
   -0.8599    2.1435   -0.8781 C   0  0  0  0  0  0  0  0  0  0  0  0
   -1.2807    2.7158    0.3096 C   0  0  0  0  0  0  0  0  0  0  0  0
   -0.8656    4.0747    0.4286 C   0  0  0  0  0  0  0  0  0  0  0  0
   -0.1527    4.4909   -0.6733 C   0  0  0  0  0  0  0  0  0  0  0  0
    0.0352    3.2467   -1.8309 S   0  0  0  0  0  0  0  0  0  0  0  0
    0.1314    0.5765    0.7816 N   0  0  0  0  0  0  0  0  0  0  0  0
   -0.5813    1.7520    0.6286 C   0  0  0  0  0  0  0  0  0  0  0  0
   -1.5903   -1.2556    0.6291 C   0  0  0  0  0  0  0  0  0  0  0  0
   -2.9320   -1.8989    1.4829 S   0  0  0  0  0  0  0  0  0  0  0  0
   -0.4275   -0.6398    1.3727 C   0  0  0  0  0  0  0  0  0  0  0  0
   -0.0367    2.7202   -0.1508 N   0  0  0  0  0  0  0  0  0  0  0  0
   -3.7425   -2.3150    0.0354 C   0  0  0  0  0  0  0  0  0  0  0  0
   -1.7570   -1.3883   -0.7361 C   0  0  0  0  0  0  0  0  0  0  0  0
    1.5863    0.6461    0.5983 C   0  0  0  0  0  0  0  0  0  0  0  0
   -2.9965   -2.0011   -1.0804 C   0  0  0  0  0  0  0  0  0  0  0  0
    2.2472   -1.5323   -0.5746 N   0  0  0  0  0  0  0  0  0  0  0  0
    2.0477   -0.0656   -0.6943 C   0  0  0  0  0  0  0  0  0  0  0  0
   -1.8122    1.9735    1.2477 C   0  0  0  0  0  0  0  0  0  0  0  0
   -0.6997    3.8880   -0.3133 C   0  0  0  0  0  0  0  0  0  0  0  0
    2.3992   -2.1198   -1.9139 C   0  0  0  0  0  0  0  0  0  0  0  0
    3.4317   -1.8537    0.2287 C   0  0  0  0  0  0  0  0  0  0  0  0
   -2.4815    3.1872    1.0783 C   0  0  0  0  0  0  0  0  0  0  0  0
   -1.9133    4.1715    0.2870 C   0  0  0  0  0  0  0  0  0  0  0  0
   -1.8795    0.0215    0.3698 C   0  0  0  0  0  0  0  0  0  0  0  0
    1.8796   -0.0262   -0.3657 C   0  0  0  0  0  0  0  0  0  0  0  0
   -0.4306    0.2197    0.4617 C   0  0  0  0  0  0  0  0  0  0  0  0
    0.4332   -0.2239   -0.4600 C   0  0  0  0  0  0  0  0  0  0  0  0
   -2.6832    0.4091    1.1968 O   0  0  0  0  0  0  0  0  0  0  0  0
    2.6831   -0.4334   -1.1835 O   0  0  0  0  0  0  0  0  0  0  0  0
    2.2663    0.6651    0.7149 O   0  0  0  0  0  0  0  0  0  0  0  0
   -2.2672   -0.6421   -0.7285 O   0  0  0  0  0  0  0  0  0  0  0  0
    1.8769    0.3813   -0.2570 C   0  0  0  0  0  0  0  0  0  0  0  0
   -1.8758   -0.3812   -0.4172 C   0  0  0  0  0  0  0  0  0  0  0  0
    0.4184    0.5184   -0.2356 C   0  0  0  0  0  0  0  0  0  0  0  0
   -0.4146   -0.5124   -0.4349 C   0  0  0  0  0  0  0  0  0  0  0  0
    2.6522    1.3046   -0.0878 O   0  0  0  0  0  0  0  0  0  0  0  0
   -2.6511   -1.3014   -0.6035 O   0  0  0  0  0  0  0  0  0  0  0  0
   -2.3025    0.8663   -0.1660 O   0  0  0  0  0  0  0  0  0  0  0  0
    2.2981   -0.8725   -0.4821 O   0  0  0  0  0  0  0  0  0  0  0  0
   -0.6515   -1.3915   -0.2206 H   0  0  0  0  0  0  0  0  0  0  0  0
    0.6515    1.3880    0.2412 H   0  0  0  0  0  0  0  0  0  0  0  0
    3.6543   -0.1703   -0.2245 H   0  0  0  0  0  0  0  0  0  0  0  0
   -3.6505    0.1627    0.2660 H   0  0  0  0  0  0  0  0  0  0  0  0
   -3.5222   -4.7078   -1.5347 H   0  0  0  0  0  0  0  0  0  0  0  0
   -2.9754   -2.9890   -3.2641 H   0  0  0  0  0  0  0  0  0  0  0  0
   -1.5376   -2.1957    1.3320 H   0  0  0  0  0  0  0  0  0  0  0  0
   -2.7805   -4.2892    0.8183 H   0  0  0  0  0  0  0  0  0  0  0  0
   -2.1894    0.7498   -1.6612 H   0  0  0  0  0  0  0  0  0  0  0  0
   -0.5577    0.5465   -2.3011 H   0  0  0  0  0  0  0  0  0  0  0  0
    1.1084   -0.5565   -1.1494 H   0  0  0  0  0  0  0  0  0  0  0  0
    0.6874   -1.7040    0.1090 H   0  0  0  0  0  0  0  0  0  0  0  0
    1.4115    1.2290    0.4896 H   0  0  0  0  0  0  0  0  0  0  0  0
    0.5026    0.3358    1.7071 H   0  0  0  0  0  0  0  0  0  0  0  0
    2.1673    0.4961    3.3566 H   0  0  0  0  0  0  0  0  0  0  0  0
    3.8292    0.0423    3.0194 H   0  0  0  0  0  0  0  0  0  0  0  0
    3.1493    1.5017    2.2778 H   0  0  0  0  0  0  0  0  0  0  0  0
    3.2472   -1.0889   -0.3966 H   0  0  0  0  0  0  0  0  0  0  0  0
    3.7756    0.5615    0.0007 H   0  0  0  0  0  0  0  0  0  0  0  0
    4.4388   -0.8388    0.8552 H   0  0  0  0  0  0  0  0  0  0  0  0
   -1.8704    2.1817    1.0418 H   0  0  0  0  0  0  0  0  0  0  0  0
   -1.0958    4.7132    1.2716 H   0  0  0  0  0  0  0  0  0  0  0  0
    0.2696    5.4700   -0.8519 H   0  0  0  0  0  0  0  0  0  0  0  0
   -0.7002   -0.4323    2.4177 H   0  0  0  0  0  0  0  0  0  0  0  0
    0.3473   -1.4171    1.4319 H   0  0  0  0  0  0  0  0  0  0  0  0
   -4.7192   -2.7837    0.0647 H   0  0  0  0  0  0  0  0  0  0  0  0
   -1.0184   -1.0393   -1.4562 H   0  0  0  0  0  0  0  0  0  0  0  0
    1.9463    1.6822    0.5647 H   0  0  0  0  0  0  0  0  0  0  0  0
    2.0840    0.2314    1.4848 H   0  0  0  0  0  0  0  0  0  0  0  0
   -3.3291   -2.1874   -2.0944 H   0  0  0  0  0  0  0  0  0  0  0  0
    2.9801    0.3969   -1.0377 H   0  0  0  0  0  0  0  0  0  0  0  0
    1.3015    0.1283   -1.4736 H   0  0  0  0  0  0  0  0  0  0  0  0
   -2.2624    1.2231    1.8828 H   0  0  0  0  0  0  0  0  0  0  0  0
   -0.2028    4.6094   -0.9566 H   0  0  0  0  0  0  0  0  0  0  0  0
    3.2724   -1.7218   -2.4425 H   0  0  0  0  0  0  0  0  0  0  0  0
    1.5030   -1.9399   -2.5203 H   0  0  0  0  0  0  0  0  0  0  0  0
    2.5217   -3.2072   -1.8397 H   0  0  0  0  0  0  0  0  0  0  0  0
    3.3176   -1.5223    1.2658 H   0  0  0  0  0  0  0  0  0  0  0  0
    3.5835   -2.9372    0.2765 H   0  0  0  0  0  0  0  0  0  0  0  0
    4.3433   -1.4051   -0.1843 H   0  0  0  0  0  0  0  0  0  0  0  0
   -3.4378    3.3500    1.5712 H   0  0  0  0  0  0  0  0  0  0  0  0
   -2.4039    5.1270    0.1383 H   0  0  0  0  0  0  0  0  0  0  0  0
   -0.1103    0.7667    1.3398 H   0  0  0  0  0  0  0  0  0  0  0  0
    0.1088   -0.7703   -1.3358 H   0  0  0  0  0  0  0  0  0  0  0  0
    3.2422    0.7054    0.6337 H   0  0  0  0  0  0  0  0  0  0  0  0
   -3.2424   -0.6916   -0.6433 H   0  0  0  0  0  0  0  0  0  0  0  0
    0.0574    1.5225   -0.0412 H   0  0  0  0  0  0  0  0  0  0  0  0
   -0.0550   -1.5176   -0.6283 H   0  0  0  0  0  0  0  0  0  0  0  0
   -3.2787    0.7861   -0.1871 H   0  0  0  0  0  0  0  0  0  0  0  0
    3.2746   -0.7940   -0.4705 H   0  0  0  0  0  0  0  0  0  0  0  0
  2  4  1  0
  3  1  1  0
  4  3  2  0
  5  1  2  0
  6  2  2  0
  7  2  1  0
  8  1  1  0
 15 17  1  0
 12 15  1  0
 17 18  1  0
 11 12  1  0
 18 19  1  0
 15 16  1  0
 19 20  1  0
 19 21  1  0
 16 22  1  0
 23 24  1  0
 12 13  2  0
 10 11  2  0
 13 14  1  0
 22 23  2  0
 24 25  2  0
 25 26  1  0
 26 22  1  0
 14  9  2  0
  9 10  1  0
 28 27  1  0
 29 31  1  0
 30 29  1  0
 31 27  1  0
 32 28  2  0
 33 30  1  0
 34 29  2  0
 35 27  1  0
 36 34  1  0
 37 38  1  0
 38 35  1  0
 39 28  1  0
 40 32  1  0
 41 37  1  0
 42 37  1  0
 43 39  2  0
 44 40  2  0
 36 33  2  0
 43 44  1  0
 46 48  1  0
 47 45  1  0
 48 47  2  0
 49 45  2  0
 50 46  2  0
 51 46  1  0
 52 45  1  0
 54 56  1  0
 55 53  1  0
 56 55  2  0
 57 53  2  0
 58 54  2  0
 59 54  1  0
 60 53  1  0
  3 61  1  0
  4 62  1  0
  7 63  1  0
  8 64  1  0
  9 65  1  0
 10 66  1  0
 13 67  1  0
 14 68  1  0
 16 69  1  0
 16 70  1  0
 17 71  1  0
 17 72  1  0
 18 73  1  0
 18 74  1  0
 20 75  1  0
 20 76  1  0
 20 77  1  0
 21 78  1  0
 21 79  1  0
 21 80  1  0
 23 81  1  0
 24 82  1  0
 25 83  1  0
 31 84  1  0
 31 85  1  0
 33 86  1  0
 34 87  1  0
 35 88  1  0
 35 89  1  0
 36 90  1  0
 38 91  1  0
 38 92  1  0
 39 93  1  0
 40 94  1  0
 41 95  1  0
 41 96  1  0
 41 97  1  0
 42 98  1  0
 42 99  1  0
 42100  1  0
 43101  1  0
 44102  1  0
 47103  1  0
 48104  1  0
 51105  1  0
 52106  1  0
 55107  1  0
 56108  1  0
 59109  1  0
 60110  1  0
M  END
$$$$
