
     RDKit          3D

110109  0  0  0  0  0  0  0  0999 V2000
   -1.8786    0.0299   -0.1216 C   0  0  0  0  0  0  0  0  0  0  0  0
    1.8786   -0.0269    0.1239 C   0  0  0  0  0  0  0  0  0  0  0  0
   -0.5183   -0.2693    0.3284 C   0  0  0  0  0  0  0  0  0  0  0  0
    0.5179    0.2646   -0.3309 C   0  0  0  0  0  0  0  0  0  0  0  0
   -2.2068    0.7322   -1.0579 O   0  0  0  0  0  0  0  0  0  0  0  0
    2.2073   -0.7215    1.0654 O   0  0  0  0  0  0  0  0  0  0  0  0
    2.7734    0.5943   -0.6580 O   0  0  0  0  0  0  0  0  0  0  0  0
   -2.7736   -0.5954    0.6571 O   0  0  0  0  0  0  0  0  0  0  0  0
    2.2779    3.7659    0.7349 C   0  0  0  0  0  0  0  0  0  0  0  0
    2.8166    2.8811   -0.1742 C   0  0  0  0  0  0  0  0  0  0  0  0
    2.2213    1.7252   -0.5455 N   0  0  0  0  0  0  0  0  0  0  0  0
    1.0265    1.3871   -0.0077 C   0  0  0  0  0  0  0  0  0  0  0  0
    0.4264    2.2483    0.9128 C   0  0  0  0  0  0  0  0  0  0  0  0
    1.0527    3.4402    1.2868 C   0  0  0  0  0  0  0  0  0  0  0  0
    0.4446    0.2001   -0.4127 N   0  0  0  0  0  0  0  0  0  0  0  0
    1.1998   -0.6807   -1.3126 C   0  0  0  0  0  0  0  0  0  0  0  0
   -0.7616   -0.3537    0.2058 C   0  0  0  0  0  0  0  0  0  0  0  0
   -2.0333    0.1818   -0.4923 C   0  0  0  0  0  0  0  0  0  0  0  0
   -3.2943   -0.1705    0.1951 N   0  0  0  0  0  0  0  0  0  0  0  0
   -3.5469   -1.6127    0.1552 C   0  0  0  0  0  0  0  0  0  0  0  0
   -4.4147    0.5468   -0.4225 C   0  0  0  0  0  0  0  0  0  0  0  0
    2.0258   -1.7428   -0.6262 C   0  0  0  0  0  0  0  0  0  0  0  0
    2.9640   -1.5858    0.3759 C   0  0  0  0  0  0  0  0  0  0  0  0
    3.5381   -2.8237    0.7857 C   0  0  0  0  0  0  0  0  0  0  0  0
    3.0291   -3.8850    0.0727 C   0  0  0  0  0  0  0  0  0  0  0  0
    1.8630   -3.3899   -1.0759 S   0  0  0  0  0  0  0  0  0  0  0  0
   -0.6091    0.3792   -0.3250 N   0  0  0  0  0  0  0  0  0  0  0  0
   -0.6339    1.7895   -0.1909 C   0  0  0  0  0  0  0  0  0  0  0  0
   -2.2154   -1.5385   -0.5529 C   0  0  0  0  0  0  0  0  0  0  0  0
   -3.0195   -2.6834    0.4388 S   0  0  0  0  0  0  0  0  0  0  0  0
   -1.9698   -0.1347   -0.0529 C   0  0  0  0  0  0  0  0  0  0  0  0
   -0.2498    2.3772    0.9629 N   0  0  0  0  0  0  0  0  0  0  0  0
   -2.9131   -3.8935   -0.7627 C   0  0  0  0  0  0  0  0  0  0  0  0
   -1.8804   -2.0803   -1.7787 C   0  0  0  0  0  0  0  0  0  0  0  0
    0.4295   -0.2473    0.5292 C   0  0  0  0  0  0  0  0  0  0  0  0
   -2.2803   -3.4415   -1.8989 C   0  0  0  0  0  0  0  0  0  0  0  0
    2.9903   -0.6284    0.6683 N   0  0  0  0  0  0  0  0  0  0  0  0
    1.8616    0.0879    0.0370 C   0  0  0  0  0  0  0  0  0  0  0  0
   -1.0653    2.5442   -1.2830 C   0  0  0  0  0  0  0  0  0  0  0  0
   -0.2942    3.7265    1.0303 C   0  0  0  0  0  0  0  0  0  0  0  0
    3.0485   -0.4067    2.1117 C   0  0  0  0  0  0  0  0  0  0  0  0
    2.9883   -2.0569    0.3576 C   0  0  0  0  0  0  0  0  0  0  0  0
   -1.1074    3.9327   -1.1888 C   0  0  0  0  0  0  0  0  0  0  0  0
   -0.7154    4.5405   -0.0066 C   0  0  0  0  0  0  0  0  0  0  0  0
    1.9023   -0.0106    0.2166 C   0  0  0  0  0  0  0  0  0  0  0  0
   -1.9024    0.0115   -0.2164 C   0  0  0  0  0  0  0  0  0  0  0  0
    0.4708   -0.2619    0.3966 C   0  0  0  0  0  0  0  0  0  0  0  0
   -0.4710    0.2654   -0.3975 C   0  0  0  0  0  0  0  0  0  0  0  0
    2.7764   -0.4791    0.9220 O   0  0  0  0  0  0  0  0  0  0  0  0
   -2.7792    0.4760   -0.9219 O   0  0  0  0  0  0  0  0  0  0  0  0
   -2.1842   -0.7947    0.8177 O   0  0  0  0  0  0  0  0  0  0  0  0
    2.1865    0.7935   -0.8177 O   0  0  0  0  0  0  0  0  0  0  0  0
   -1.8612    0.0986    0.3271 C   0  0  0  0  0  0  0  0  0  0  0  0
    1.8624   -0.0976   -0.1783 C   0  0  0  0  0  0  0  0  0  0  0  0
   -0.5441    0.0538   -0.3087 C   0  0  0  0  0  0  0  0  0  0  0  0
    0.5469   -0.0543    0.4594 C   0  0  0  0  0  0  0  0  0  0  0  0
   -2.1075    0.0515    1.5158 O   0  0  0  0  0  0  0  0  0  0  0  0
    2.1077   -0.0399   -1.3673 O   0  0  0  0  0  0  0  0  0  0  0  0
    2.8214   -0.2162    0.7506 O   0  0  0  0  0  0  0  0  0  0  0  0
   -2.8224    0.2055   -0.6010 O   0  0  0  0  0  0  0  0  0  0  0  0
   -0.3989   -0.9171    1.1893 H   0  0  0  0  0  0  0  0  0  0  0  0
    0.3991    0.9103   -1.1935 H   0  0  0  0  0  0  0  0  0  0  0  0
    3.6407    0.3378   -0.2806 H   0  0  0  0  0  0  0  0  0  0  0  0
   -3.6407   -0.3389    0.2784 H   0  0  0  0  0  0  0  0  0  0  0  0
    2.7949    4.6800    1.0017 H   0  0  0  0  0  0  0  0  0  0  0  0
    3.7737    3.0768   -0.6483 H   0  0  0  0  0  0  0  0  0  0  0  0
   -0.5364    2.0201    1.3550 H   0  0  0  0  0  0  0  0  0  0  0  0
    0.5750    4.1024    2.0025 H   0  0  0  0  0  0  0  0  0  0  0  0
    1.8504   -0.1202   -1.9966 H   0  0  0  0  0  0  0  0  0  0  0  0
    0.4722   -1.1630   -1.9803 H   0  0  0  0  0  0  0  0  0  0  0  0
   -0.7421   -1.4463    0.1228 H   0  0  0  0  0  0  0  0  0  0  0  0
   -0.7855   -0.1492    1.2814 H   0  0  0  0  0  0  0  0  0  0  0  0
   -1.9611    1.2753   -0.5361 H   0  0  0  0  0  0  0  0  0  0  0  0
   -2.0488   -0.1660   -1.5340 H   0  0  0  0  0  0  0  0  0  0  0  0
   -4.5039   -1.8500    0.6341 H   0  0  0  0  0  0  0  0  0  0  0  0
   -2.7824   -2.1606    0.7130 H   0  0  0  0  0  0  0  0  0  0  0  0
   -3.5713   -1.9981   -0.8700 H   0  0  0  0  0  0  0  0  0  0  0  0
   -4.5435    0.2864   -1.4799 H   0  0  0  0  0  0  0  0  0  0  0  0
   -4.2673    1.6303   -0.3504 H   0  0  0  0  0  0  0  0  0  0  0  0
   -5.3498    0.3276    0.1050 H   0  0  0  0  0  0  0  0  0  0  0  0
    3.2159   -0.6185    0.7969 H   0  0  0  0  0  0  0  0  0  0  0  0
    4.2882   -2.9280    1.5592 H   0  0  0  0  0  0  0  0  0  0  0  0
    3.2866   -4.9308    0.1685 H   0  0  0  0  0  0  0  0  0  0  0  0
   -2.7278    0.4918   -0.5448 H   0  0  0  0  0  0  0  0  0  0  0  0
   -2.1743   -0.0724    1.0250 H   0  0  0  0  0  0  0  0  0  0  0  0
   -3.3172   -4.8780   -0.5788 H   0  0  0  0  0  0  0  0  0  0  0  0
   -1.3604   -1.5193   -2.5487 H   0  0  0  0  0  0  0  0  0  0  0  0
    0.2990   -1.3337    0.4785 H   0  0  0  0  0  0  0  0  0  0  0  0
    0.3006    0.0257    1.5850 H   0  0  0  0  0  0  0  0  0  0  0  0
   -2.1097   -4.0576   -2.7729 H   0  0  0  0  0  0  0  0  0  0  0  0
    1.9133   -0.0748   -1.0488 H   0  0  0  0  0  0  0  0  0  0  0  0
    2.0510    1.1620    0.1626 H   0  0  0  0  0  0  0  0  0  0  0  0
   -1.3531    2.0496   -2.2041 H   0  0  0  0  0  0  0  0  0  0  0  0
    0.0299    4.1508    1.9769 H   0  0  0  0  0  0  0  0  0  0  0  0
    2.2098   -0.8736    2.6431 H   0  0  0  0  0  0  0  0  0  0  0  0
    3.9759   -0.8196    2.5222 H   0  0  0  0  0  0  0  0  0  0  0  0
    3.0542    0.6656    2.3430 H   0  0  0  0  0  0  0  0  0  0  0  0
    2.1374   -2.5873    0.7993 H   0  0  0  0  0  0  0  0  0  0  0  0
    2.9711   -2.2162   -0.7266 H   0  0  0  0  0  0  0  0  0  0  0  0
    3.9072   -2.5268    0.7252 H   0  0  0  0  0  0  0  0  0  0  0  0
   -1.4393    4.5280   -2.0365 H   0  0  0  0  0  0  0  0  0  0  0  0
   -0.7323    5.6194    0.1051 H   0  0  0  0  0  0  0  0  0  0  0  0
    0.2286   -0.9128    1.2292 H   0  0  0  0  0  0  0  0  0  0  0  0
   -0.2304    0.9182   -1.2294 H   0  0  0  0  0  0  0  0  0  0  0  0
   -3.1619   -0.8642    0.8036 H   0  0  0  0  0  0  0  0  0  0  0  0
    3.1644    0.8587   -0.8027 H   0  0  0  0  0  0  0  0  0  0  0  0
   -0.5032    0.1123   -1.3902 H   0  0  0  0  0  0  0  0  0  0  0  0
    0.5016   -0.1132    1.5406 H   0  0  0  0  0  0  0  0  0  0  0  0
    3.6548   -0.2343    0.2348 H   0  0  0  0  0  0  0  0  0  0  0  0
   -3.6564    0.2336   -0.0860 H   0  0  0  0  0  0  0  0  0  0  0  0
  2  4  1  0
  3  1  1  0
  4  3  2  0
  5  1  2  0
  6  2  2  0
  7  2  1  0
  8  1  1  0
 15 17  1  0
 12 15  1  0
 17 18  1  0
 11 12  1  0
 18 19  1  0
 15 16  1  0
 19 20  1  0
 19 21  1  0
 16 22  1  0
 23 24  1  0
 12 13  2  0
 10 11  2  0
 13 14  1  0
 22 23  2  0
 24 25  2  0
 25 26  1  0
 26 22  1  0
 14  9  2  0
  9 10  1  0
 28 27  1  0
 29 31  1  0
 30 29  1  0
 31 27  1  0
 32 28  2  0
 33 30  1  0
 34 29  2  0
 35 27  1  0
 36 34  1  0
 37 38  1  0
 38 35  1  0
 39 28  1  0
 40 32  1  0
 41 37  1  0
 42 37  1  0
 43 39  2  0
 44 40  2  0
 36 33  2  0
 43 44  1  0
 46 48  1  0
 47 45  1  0
 48 47  2  0
 49 45  2  0
 50 46  2  0
 51 46  1  0
 52 45  1  0
 54 56  1  0
 55 53  1  0
 56 55  2  0
 57 53  2  0
 58 54  2  0
 59 54  1  0
 60 53  1  0
  3 61  1  0
  4 62  1  0
  7 63  1  0
  8 64  1  0
  9 65  1  0
 10 66  1  0
 13 67  1  0
 14 68  1  0
 16 69  1  0
 16 70  1  0
 17 71  1  0
 17 72  1  0
 18 73  1  0
 18 74  1  0
 20 75  1  0
 20 76  1  0
 20 77  1  0
 21 78  1  0
 21 79  1  0
 21 80  1  0
 23 81  1  0
 24 82  1  0
 25 83  1  0
 31 84  1  0
 31 85  1  0
 33 86  1  0
 34 87  1  0
 35 88  1  0
 35 89  1  0
 36 90  1  0
 38 91  1  0
 38 92  1  0
 39 93  1  0
 40 94  1  0
 41 95  1  0
 41 96  1  0
 41 97  1  0
 42 98  1  0
 42 99  1  0
 42100  1  0
 43101  1  0
 44102  1  0
 47103  1  0
 48104  1  0
 51105  1  0
 52106  1  0
 55107  1  0
 56108  1  0
 59109  1  0
 60110  1  0
M  END
$$$$
