
     RDKit          3D

110109  0  0  0  0  0  0  0  0999 V2000
   -1.9624   -0.2071    0.0787 C   0  0  0  0  0  0  0  0  0  0  0  0
    1.8067   -0.1330   -0.3985 C   0  0  0  0  0  0  0  0  0  0  0  0
   -0.5860   -0.4855   -0.3459 C   0  0  0  0  0  0  0  0  0  0  0  0
    0.4661    0.2319    0.0687 C   0  0  0  0  0  0  0  0  0  0  0  0
   -2.9385   -0.8248   -0.2933 O   0  0  0  0  0  0  0  0  0  0  0  0
    2.1038   -1.0478   -1.1379 O   0  0  0  0  0  0  0  0  0  0  0  0
    2.7238    0.6966    0.1219 O   0  0  0  0  0  0  0  0  0  0  0  0
   -2.0628    0.7987    0.9565 O   0  0  0  0  0  0  0  0  0  0  0  0
   -2.7801    3.0490    1.2713 C   0  0  0  0  0  0  0  0  0  0  0  0
   -1.8657    2.4804    2.1464 C   0  0  0  0  0  0  0  0  0  0  0  0
   -1.0017    1.4948    1.8053 N   0  0  0  0  0  0  0  0  0  0  0  0
   -1.0608    1.0270    0.5367 C   0  0  0  0  0  0  0  0  0  0  0  0
   -1.9676    1.5352   -0.4009 C   0  0  0  0  0  0  0  0  0  0  0  0
   -2.8340    2.5605   -0.0281 C   0  0  0  0  0  0  0  0  0  0  0  0
   -0.1819   -0.0098    0.1089 N   0  0  0  0  0  0  0  0  0  0  0  0
   -0.5698   -1.2455    0.8328 C   0  0  0  0  0  0  0  0  0  0  0  0
    1.2129    0.4054    0.3946 C   0  0  0  0  0  0  0  0  0  0  0  0
    2.1886   -0.3106   -0.5716 C   0  0  0  0  0  0  0  0  0  0  0  0
    3.6249   -0.0755   -0.2994 N   0  0  0  0  0  0  0  0  0  0  0  0
    4.4439   -0.9241   -1.1728 C   0  0  0  0  0  0  0  0  0  0  0  0
    3.9993    1.3288   -0.4808 C   0  0  0  0  0  0  0  0  0  0  0  0
   -1.8379   -1.9081    0.3473 C   0  0  0  0  0  0  0  0  0  0  0  0
   -2.2252   -2.1684   -0.9530 C   0  0  0  0  0  0  0  0  0  0  0  0
   -3.4913   -2.8204   -1.0253 C   0  0  0  0  0  0  0  0  0  0  0  0
   -4.0263   -3.0333    0.2253 C   0  0  0  0  0  0  0  0  0  0  0  0
   -2.9983   -2.4796    1.4732 S   0  0  0  0  0  0  0  0  0  0  0  0
    0.4555    0.1064   -0.9959 N   0  0  0  0  0  0  0  0  0  0  0  0
    1.0678    1.3303   -0.7825 C   0  0  0  0  0  0  0  0  0  0  0  0
    1.8163   -1.7762   -0.0311 C   0  0  0  0  0  0  0  0  0  0  0  0
    0.9370   -3.0662    0.6755 S   0  0  0  0  0  0  0  0  0  0  0  0
    1.3021   -1.0614   -1.2552 C   0  0  0  0  0  0  0  0  0  0  0  0
    2.4178    1.3905   -0.8027 N   0  0  0  0  0  0  0  0  0  0  0  0
    2.1405   -3.3284    1.8645 C   0  0  0  0  0  0  0  0  0  0  0  0
    3.0049   -1.5519    0.6428 C   0  0  0  0  0  0  0  0  0  0  0  0
   -0.9903   -0.0376   -1.1716 C   0  0  0  0  0  0  0  0  0  0  0  0
    3.1913   -2.4417    1.7357 C   0  0  0  0  0  0  0  0  0  0  0  0
   -3.2004   -0.0808    0.0679 N   0  0  0  0  0  0  0  0  0  0  0  0
   -1.7266   -0.1705    0.1839 C   0  0  0  0  0  0  0  0  0  0  0  0
    0.3450    2.5003   -0.5479 C   0  0  0  0  0  0  0  0  0  0  0  0
    3.0399    2.5763   -0.5918 C   0  0  0  0  0  0  0  0  0  0  0  0
   -3.7564   -1.2490   -0.6205 C   0  0  0  0  0  0  0  0  0  0  0  0
   -3.7966    0.0254    1.4019 C   0  0  0  0  0  0  0  0  0  0  0  0
    0.9984    3.7169   -0.3346 C   0  0  0  0  0  0  0  0  0  0  0  0
    2.3816    3.7600   -0.3541 C   0  0  0  0  0  0  0  0  0  0  0  0
    1.8316   -0.1626    0.2029 C   0  0  0  0  0  0  0  0  0  0  0  0
   -1.9695   -0.1198    0.1290 C   0  0  0  0  0  0  0  0  0  0  0  0
    0.4606    0.1710   -0.1937 C   0  0  0  0  0  0  0  0  0  0  0  0
   -0.5673   -0.3866    0.4594 C   0  0  0  0  0  0  0  0  0  0  0  0
    2.1754   -0.9035    1.1026 O   0  0  0  0  0  0  0  0  0  0  0  0
   -2.9176   -0.6302    0.6970 O   0  0  0  0  0  0  0  0  0  0  0  0
   -2.1331    0.7598   -0.8692 O   0  0  0  0  0  0  0  0  0  0  0  0
    2.7141    0.4773   -0.5790 O   0  0  0  0  0  0  0  0  0  0  0  0
   -1.8229   -0.2613   -0.1306 C   0  0  0  0  0  0  0  0  0  0  0  0
    1.9585    0.0352   -0.2451 C   0  0  0  0  0  0  0  0  0  0  0  0
   -0.4563    0.1116    0.2420 C   0  0  0  0  0  0  0  0  0  0  0  0
    0.5587   -0.2816   -0.5394 C   0  0  0  0  0  0  0  0  0  0  0  0
   -2.1783   -0.9040   -1.0986 O   0  0  0  0  0  0  0  0  0  0  0  0
    2.8998   -0.3109   -0.9346 O   0  0  0  0  0  0  0  0  0  0  0  0
    2.1294    0.7671    0.8665 O   0  0  0  0  0  0  0  0  0  0  0  0
   -2.6927    0.2105    0.7758 O   0  0  0  0  0  0  0  0  0  0  0  0
   -0.4843   -1.3196   -1.0337 H   0  0  0  0  0  0  0  0  0  0  0  0
    0.3850    1.0739    0.7465 H   0  0  0  0  0  0  0  0  0  0  0  0
    3.5719    0.3797   -0.2542 H   0  0  0  0  0  0  0  0  0  0  0  0
   -3.0233    0.8371    1.1568 H   0  0  0  0  0  0  0  0  0  0  0  0
   -3.4362    3.8463    1.5982 H   0  0  0  0  0  0  0  0  0  0  0  0
   -1.8022    2.8140    3.1787 H   0  0  0  0  0  0  0  0  0  0  0  0
   -1.9878    1.1283   -1.4081 H   0  0  0  0  0  0  0  0  0  0  0  0
   -3.5472    2.9634   -0.7463 H   0  0  0  0  0  0  0  0  0  0  0  0
    0.2203   -1.9933    0.6843 H   0  0  0  0  0  0  0  0  0  0  0  0
   -0.6015   -1.0711    1.9199 H   0  0  0  0  0  0  0  0  0  0  0  0
    1.3211    1.4848    0.2434 H   0  0  0  0  0  0  0  0  0  0  0  0
    1.4825    0.1848    1.4353 H   0  0  0  0  0  0  0  0  0  0  0  0
    1.9420   -0.0258   -1.6043 H   0  0  0  0  0  0  0  0  0  0  0  0
    2.0042   -1.3900   -0.5008 H   0  0  0  0  0  0  0  0  0  0  0  0
    5.5083   -0.7981   -0.9485 H   0  0  0  0  0  0  0  0  0  0  0  0
    4.2915   -0.6998   -2.2364 H   0  0  0  0  0  0  0  0  0  0  0  0
    4.2164   -1.9836   -1.0102 H   0  0  0  0  0  0  0  0  0  0  0  0
    5.0738    1.4718   -0.3088 H   0  0  0  0  0  0  0  0  0  0  0  0
    3.4998    1.9660    0.2560 H   0  0  0  0  0  0  0  0  0  0  0  0
    3.7634    1.7042   -1.4810 H   0  0  0  0  0  0  0  0  0  0  0  0
   -1.6207   -1.8968   -1.8089 H   0  0  0  0  0  0  0  0  0  0  0  0
   -3.9871   -3.1136   -1.9433 H   0  0  0  0  0  0  0  0  0  0  0  0
   -4.9694   -3.4971    0.4712 H   0  0  0  0  0  0  0  0  0  0  0  0
    0.7492   -1.7863   -1.8640 H   0  0  0  0  0  0  0  0  0  0  0  0
    2.1514   -0.7984   -1.8994 H   0  0  0  0  0  0  0  0  0  0  0  0
    2.0236   -4.1117    2.5993 H   0  0  0  0  0  0  0  0  0  0  0  0
    3.7022   -0.7763    0.3538 H   0  0  0  0  0  0  0  0  0  0  0  0
   -1.3944    0.8037   -1.7487 H   0  0  0  0  0  0  0  0  0  0  0  0
   -1.2032   -0.9242   -1.7857 H   0  0  0  0  0  0  0  0  0  0  0  0
    4.0561   -2.4441    2.3888 H   0  0  0  0  0  0  0  0  0  0  0  0
   -1.4421   -1.1099    0.6752 H   0  0  0  0  0  0  0  0  0  0  0  0
   -1.3824    0.6318    0.8453 H   0  0  0  0  0  0  0  0  0  0  0  0
   -0.7403    2.5016   -0.5127 H   0  0  0  0  0  0  0  0  0  0  0  0
    4.1240    2.5361   -0.6273 H   0  0  0  0  0  0  0  0  0  0  0  0
   -3.4922   -2.1881   -0.1197 H   0  0  0  0  0  0  0  0  0  0  0  0
   -4.8503   -1.1823   -0.6758 H   0  0  0  0  0  0  0  0  0  0  0  0
   -3.4037   -1.3082   -1.6534 H   0  0  0  0  0  0  0  0  0  0  0  0
   -3.4220    0.9183    1.9124 H   0  0  0  0  0  0  0  0  0  0  0  0
   -4.8832    0.1392    1.3328 H   0  0  0  0  0  0  0  0  0  0  0  0
   -3.5710   -0.8447    2.0322 H   0  0  0  0  0  0  0  0  0  0  0  0
    0.4226    4.6157   -0.1414 H   0  0  0  0  0  0  0  0  0  0  0  0
    2.9280    4.6854   -0.1958 H   0  0  0  0  0  0  0  0  0  0  0  0
    0.3352    0.8686   -1.0105 H   0  0  0  0  0  0  0  0  0  0  0  0
   -0.4158   -1.0907    1.2704 H   0  0  0  0  0  0  0  0  0  0  0  0
   -3.1057    0.8179   -0.9712 H   0  0  0  0  0  0  0  0  0  0  0  0
    3.5920    0.1988   -0.2377 H   0  0  0  0  0  0  0  0  0  0  0  0
   -0.3292    0.6941    1.1477 H   0  0  0  0  0  0  0  0  0  0  0  0
    0.4004   -0.8648   -1.4415 H   0  0  0  0  0  0  0  0  0  0  0  0
    3.1008    0.8904    0.9078 H   0  0  0  0  0  0  0  0  0  0  0  0
   -3.5682   -0.0861    0.4501 H   0  0  0  0  0  0  0  0  0  0  0  0
  2  4  1  0
  3  1  1  0
  4  3  2  0
  5  1  2  0
  6  2  2  0
  7  2  1  0
  8  1  1  0
 15 17  1  0
 12 15  1  0
 17 18  1  0
 11 12  1  0
 18 19  1  0
 15 16  1  0
 19 20  1  0
 19 21  1  0
 16 22  1  0
 23 24  1  0
 12 13  2  0
 10 11  2  0
 13 14  1  0
 22 23  2  0
 24 25  2  0
 25 26  1  0
 26 22  1  0
 14  9  2  0
  9 10  1  0
 28 27  1  0
 29 31  1  0
 30 29  1  0
 31 27  1  0
 32 28  2  0
 33 30  1  0
 34 29  2  0
 35 27  1  0
 36 34  1  0
 37 38  1  0
 38 35  1  0
 39 28  1  0
 40 32  1  0
 41 37  1  0
 42 37  1  0
 43 39  2  0
 44 40  2  0
 36 33  2  0
 43 44  1  0
 46 48  1  0
 47 45  1  0
 48 47  2  0
 49 45  2  0
 50 46  2  0
 51 46  1  0
 52 45  1  0
 54 56  1  0
 55 53  1  0
 56 55  2  0
 57 53  2  0
 58 54  2  0
 59 54  1  0
 60 53  1  0
  3 61  1  0
  4 62  1  0
  7 63  1  0
  8 64  1  0
  9 65  1  0
 10 66  1  0
 13 67  1  0
 14 68  1  0
 16 69  1  0
 16 70  1  0
 17 71  1  0
 17 72  1  0
 18 73  1  0
 18 74  1  0
 20 75  1  0
 20 76  1  0
 20 77  1  0
 21 78  1  0
 21 79  1  0
 21 80  1  0
 23 81  1  0
 24 82  1  0
 25 83  1  0
 31 84  1  0
 31 85  1  0
 33 86  1  0
 34 87  1  0
 35 88  1  0
 35 89  1  0
 36 90  1  0
 38 91  1  0
 38 92  1  0
 39 93  1  0
 40 94  1  0
 41 95  1  0
 41 96  1  0
 41 97  1  0
 42 98  1  0
 42 99  1  0
 42100  1  0
 43101  1  0
 44102  1  0
 47103  1  0
 48104  1  0
 51105  1  0
 52106  1  0
 55107  1  0
 56108  1  0
 59109  1  0
 60110  1  0
M  END
$$$$
