
     RDKit          3D

110109  0  0  0  0  0  0  0  0999 V2000
   -1.8313    0.2854   -0.4300 C   0  0  0  0  0  0  0  0  0  0  0  0
    1.8306   -0.2850    0.5232 C   0  0  0  0  0  0  0  0  0  0  0  0
   -0.4054    0.4895   -0.1677 C   0  0  0  0  0  0  0  0  0  0  0  0
    0.4064   -0.4908    0.2509 C   0  0  0  0  0  0  0  0  0  0  0  0
   -2.5910    1.1555   -0.8142 O   0  0  0  0  0  0  0  0  0  0  0  0
    2.5905   -1.1568    0.9033 O   0  0  0  0  0  0  0  0  0  0  0  0
    2.2462    0.9739    0.3181 O   0  0  0  0  0  0  0  0  0  0  0  0
   -2.2486   -0.9710   -0.2149 O   0  0  0  0  0  0  0  0  0  0  0  0
    1.4435    3.4597   -1.0729 C   0  0  0  0  0  0  0  0  0  0  0  0
    1.5033    2.3055   -1.8333 C   0  0  0  0  0  0  0  0  0  0  0  0
    1.1440    1.0838   -1.3793 N   0  0  0  0  0  0  0  0  0  0  0  0
    0.7030    0.9788   -0.1064 C   0  0  0  0  0  0  0  0  0  0  0  0
    0.6149    2.1016    0.7188 C   0  0  0  0  0  0  0  0  0  0  0  0
    0.9875    3.3529    0.2332 C   0  0  0  0  0  0  0  0  0  0  0  0
    0.3170   -0.2729    0.4085 N   0  0  0  0  0  0  0  0  0  0  0  0
    0.9522   -1.4152   -0.2739 C   0  0  0  0  0  0  0  0  0  0  0  0
   -1.1396   -0.3847    0.6187 C   0  0  0  0  0  0  0  0  0  0  0  0
   -1.9596   -0.4115   -0.6982 C   0  0  0  0  0  0  0  0  0  0  0  0
   -3.4293   -0.4629   -0.5796 N   0  0  0  0  0  0  0  0  0  0  0  0
   -3.9934    0.7771   -0.0507 C   0  0  0  0  0  0  0  0  0  0  0  0
   -3.9035   -1.6227    0.1698 C   0  0  0  0  0  0  0  0  0  0  0  0
    2.4006   -1.6294    0.0891 C   0  0  0  0  0  0  0  0  0  0  0  0
    2.9832   -1.5777    1.3437 C   0  0  0  0  0  0  0  0  0  0  0  0
    4.3849   -1.8333    1.3019 C   0  0  0  0  0  0  0  0  0  0  0  0
    4.8283   -2.0638    0.0186 C   0  0  0  0  0  0  0  0  0  0  0  0
    3.5564   -1.9937   -1.1250 S   0  0  0  0  0  0  0  0  0  0  0  0
   -0.6718    0.3228   -0.2293 N   0  0  0  0  0  0  0  0  0  0  0  0
   -0.7770   -1.0346   -0.6317 C   0  0  0  0  0  0  0  0  0  0  0  0
   -1.9690    2.4564   -0.3768 C   0  0  0  0  0  0  0  0  0  0  0  0
   -1.8281    3.9011   -1.2946 S   0  0  0  0  0  0  0  0  0  0  0  0
   -1.6530    1.1171   -1.0016 C   0  0  0  0  0  0  0  0  0  0  0  0
   -0.7685   -1.3601   -1.9465 N   0  0  0  0  0  0  0  0  0  0  0  0
   -2.3114    4.8637    0.0366 C   0  0  0  0  0  0  0  0  0  0  0  0
   -2.3897    2.7167    0.9158 C   0  0  0  0  0  0  0  0  0  0  0  0
    0.7220    0.7878   -0.4272 C   0  0  0  0  0  0  0  0  0  0  0  0
   -2.5876    4.1065    1.1545 C   0  0  0  0  0  0  0  0  0  0  0  0
    2.1359   -0.9711    0.8581 N   0  0  0  0  0  0  0  0  0  0  0  0
    1.6644    0.4304    0.7551 C   0  0  0  0  0  0  0  0  0  0  0  0
   -0.9211   -2.0019    0.3632 C   0  0  0  0  0  0  0  0  0  0  0  0
   -0.8913   -2.6675   -2.2693 C   0  0  0  0  0  0  0  0  0  0  0  0
    2.9189   -1.1469    2.0833 C   0  0  0  0  0  0  0  0  0  0  0  0
    2.9286   -1.3697   -0.3093 C   0  0  0  0  0  0  0  0  0  0  0  0
   -1.0488   -3.3403    0.0038 C   0  0  0  0  0  0  0  0  0  0  0  0
   -1.0348   -3.6847   -1.3426 C   0  0  0  0  0  0  0  0  0  0  0  0
   -1.8469   -0.1013    0.4897 C   0  0  0  0  0  0  0  0  0  0  0  0
    1.8469    0.1018   -0.4898 C   0  0  0  0  0  0  0  0  0  0  0  0
   -0.3972   -0.3033    0.4467 C   0  0  0  0  0  0  0  0  0  0  0  0
    0.3977    0.3082   -0.4419 C   0  0  0  0  0  0  0  0  0  0  0  0
   -2.5946   -0.6533    1.2749 O   0  0  0  0  0  0  0  0  0  0  0  0
    2.5932    0.6449   -1.2839 O   0  0  0  0  0  0  0  0  0  0  0  0
    2.3042   -0.7548    0.4356 O   0  0  0  0  0  0  0  0  0  0  0  0
   -2.3028    0.7590   -0.4327 O   0  0  0  0  0  0  0  0  0  0  0  0
   -1.8025   -0.4545    0.4113 C   0  0  0  0  0  0  0  0  0  0  0  0
    1.8020    0.4546   -0.5168 C   0  0  0  0  0  0  0  0  0  0  0  0
   -0.3408   -0.4514    0.3076 C   0  0  0  0  0  0  0  0  0  0  0  0
    0.3398    0.4491   -0.4147 C   0  0  0  0  0  0  0  0  0  0  0  0
   -2.4415   -1.2601    1.0630 O   0  0  0  0  0  0  0  0  0  0  0  0
    2.4436    1.2615   -1.1650 O   0  0  0  0  0  0  0  0  0  0  0  0
    2.3998   -0.5242    0.1784 O   0  0  0  0  0  0  0  0  0  0  0  0
   -2.3998    0.5299   -0.2776 O   0  0  0  0  0  0  0  0  0  0  0  0
   -0.0550    1.5021   -0.3364 H   0  0  0  0  0  0  0  0  0  0  0  0
    0.0574   -1.5036    0.4176 H   0  0  0  0  0  0  0  0  0  0  0  0
    3.2019    0.9446    0.5358 H   0  0  0  0  0  0  0  0  0  0  0  0
   -3.2016   -0.9437   -0.4432 H   0  0  0  0  0  0  0  0  0  0  0  0
    1.7516    4.4138   -1.4849 H   0  0  0  0  0  0  0  0  0  0  0  0
    1.8528    2.3274   -2.8637 H   0  0  0  0  0  0  0  0  0  0  0  0
    0.2809    1.9950    1.7440 H   0  0  0  0  0  0  0  0  0  0  0  0
    0.9333    4.2256    0.8755 H   0  0  0  0  0  0  0  0  0  0  0  0
    0.4361   -2.3327    0.0418 H   0  0  0  0  0  0  0  0  0  0  0  0
    0.8108   -1.3683   -1.3620 H   0  0  0  0  0  0  0  0  0  0  0  0
   -1.3211   -1.3105    1.1828 H   0  0  0  0  0  0  0  0  0  0  0  0
   -1.4894    0.4284    1.2658 H   0  0  0  0  0  0  0  0  0  0  0  0
   -1.6412   -1.2782   -1.2930 H   0  0  0  0  0  0  0  0  0  0  0  0
   -1.7023    0.4559   -1.3186 H   0  0  0  0  0  0  0  0  0  0  0  0
   -3.6712    1.6361   -0.6504 H   0  0  0  0  0  0  0  0  0  0  0  0
   -5.0881    0.7486   -0.1094 H   0  0  0  0  0  0  0  0  0  0  0  0
   -3.7168    0.9622    0.9923 H   0  0  0  0  0  0  0  0  0  0  0  0
   -4.9920   -1.7110    0.0828 H   0  0  0  0  0  0  0  0  0  0  0  0
   -3.6531   -1.5671    1.2380 H   0  0  0  0  0  0  0  0  0  0  0  0
   -3.4806   -2.5507   -0.2373 H   0  0  0  0  0  0  0  0  0  0  0  0
    2.4238   -1.3512    2.2469 H   0  0  0  0  0  0  0  0  0  0  0  0
    5.0334   -1.8422    2.1695 H   0  0  0  0  0  0  0  0  0  0  0  0
    5.8398   -2.2727   -0.3032 H   0  0  0  0  0  0  0  0  0  0  0  0
   -1.3087    1.2529   -2.0369 H   0  0  0  0  0  0  0  0  0  0  0  0
   -2.6101    0.5794   -1.0590 H   0  0  0  0  0  0  0  0  0  0  0  0
   -2.3709    5.9387   -0.0617 H   0  0  0  0  0  0  0  0  0  0  0  0
   -2.5454    1.9352    1.6518 H   0  0  0  0  0  0  0  0  0  0  0  0
    0.7201    1.8868   -0.4756 H   0  0  0  0  0  0  0  0  0  0  0  0
    1.1311    0.4664   -1.3936 H   0  0  0  0  0  0  0  0  0  0  0  0
   -2.9128    4.5298    2.0974 H   0  0  0  0  0  0  0  0  0  0  0  0
    1.1368    0.6917    1.6846 H   0  0  0  0  0  0  0  0  0  0  0  0
    2.5373    1.0966    0.6958 H   0  0  0  0  0  0  0  0  0  0  0  0
   -0.9226   -1.7074    1.4083 H   0  0  0  0  0  0  0  0  0  0  0  0
   -0.8665   -2.8803   -3.3358 H   0  0  0  0  0  0  0  0  0  0  0  0
    2.3079   -0.9308    2.9706 H   0  0  0  0  0  0  0  0  0  0  0  0
    3.2609   -2.1859    2.1819 H   0  0  0  0  0  0  0  0  0  0  0  0
    3.8006   -0.4986    2.1075 H   0  0  0  0  0  0  0  0  0  0  0  0
    2.3193   -1.3834   -1.2200 H   0  0  0  0  0  0  0  0  0  0  0  0
    3.7864   -0.7030   -0.4749 H   0  0  0  0  0  0  0  0  0  0  0  0
    3.3021   -2.3937   -0.1931 H   0  0  0  0  0  0  0  0  0  0  0  0
   -1.1502   -4.1039    0.7699 H   0  0  0  0  0  0  0  0  0  0  0  0
   -1.1329   -4.7161   -1.6588 H   0  0  0  0  0  0  0  0  0  0  0  0
   -0.0157   -0.9997    1.1852 H   0  0  0  0  0  0  0  0  0  0  0  0
    0.0147    1.0015   -1.1817 H   0  0  0  0  0  0  0  0  0  0  0  0
    3.2707   -0.7841    0.2730 H   0  0  0  0  0  0  0  0  0  0  0  0
   -3.2700    0.7811   -0.2750 H   0  0  0  0  0  0  0  0  0  0  0  0
    0.1513   -1.2423    0.8629 H   0  0  0  0  0  0  0  0  0  0  0  0
   -0.1521    1.2397   -0.9707 H   0  0  0  0  0  0  0  0  0  0  0  0
    3.3553   -0.3902    0.0028 H   0  0  0  0  0  0  0  0  0  0  0  0
   -3.3550    0.3879   -0.1070 H   0  0  0  0  0  0  0  0  0  0  0  0
  2  4  1  0
  3  1  1  0
  4  3  2  0
  5  1  2  0
  6  2  2  0
  7  2  1  0
  8  1  1  0
 15 17  1  0
 12 15  1  0
 17 18  1  0
 11 12  1  0
 18 19  1  0
 15 16  1  0
 19 20  1  0
 19 21  1  0
 16 22  1  0
 23 24  1  0
 12 13  2  0
 10 11  2  0
 13 14  1  0
 22 23  2  0
 24 25  2  0
 25 26  1  0
 26 22  1  0
 14  9  2  0
  9 10  1  0
 28 27  1  0
 29 31  1  0
 30 29  1  0
 31 27  1  0
 32 28  2  0
 33 30  1  0
 34 29  2  0
 35 27  1  0
 36 34  1  0
 37 38  1  0
 38 35  1  0
 39 28  1  0
 40 32  1  0
 41 37  1  0
 42 37  1  0
 43 39  2  0
 44 40  2  0
 36 33  2  0
 43 44  1  0
 46 48  1  0
 47 45  1  0
 48 47  2  0
 49 45  2  0
 50 46  2  0
 51 46  1  0
 52 45  1  0
 54 56  1  0
 55 53  1  0
 56 55  2  0
 57 53  2  0
 58 54  2  0
 59 54  1  0
 60 53  1  0
  3 61  1  0
  4 62  1  0
  7 63  1  0
  8 64  1  0
  9 65  1  0
 10 66  1  0
 13 67  1  0
 14 68  1  0
 16 69  1  0
 16 70  1  0
 17 71  1  0
 17 72  1  0
 18 73  1  0
 18 74  1  0
 20 75  1  0
 20 76  1  0
 20 77  1  0
 21 78  1  0
 21 79  1  0
 21 80  1  0
 23 81  1  0
 24 82  1  0
 25 83  1  0
 31 84  1  0
 31 85  1  0
 33 86  1  0
 34 87  1  0
 35 88  1  0
 35 89  1  0
 36 90  1  0
 38 91  1  0
 38 92  1  0
 39 93  1  0
 40 94  1  0
 41 95  1  0
 41 96  1  0
 41 97  1  0
 42 98  1  0
 42 99  1  0
 42100  1  0
 43101  1  0
 44102  1  0
 47103  1  0
 48104  1  0
 51105  1  0
 52106  1  0
 55107  1  0
 56108  1  0
 59109  1  0
 60110  1  0
M  END
$$$$
