
     RDKit          3D

110109  0  0  0  0  0  0  0  0999 V2000
   -1.9273   -0.2472   -0.2666 C   0  0  0  0  0  0  0  0  0  0  0  0
    1.8284    0.2379   -0.0247 C   0  0  0  0  0  0  0  0  0  0  0  0
   -0.5064   -0.0612   -0.5697 C   0  0  0  0  0  0  0  0  0  0  0  0
    0.4333    0.0553    0.3776 C   0  0  0  0  0  0  0  0  0  0  0  0
   -2.8016   -0.3578   -1.1062 O   0  0  0  0  0  0  0  0  0  0  0  0
    2.2664    0.3036   -1.1564 O   0  0  0  0  0  0  0  0  0  0  0  0
    2.6136    0.3294    1.0589 O   0  0  0  0  0  0  0  0  0  0  0  0
   -2.2016   -0.2886    1.0454 O   0  0  0  0  0  0  0  0  0  0  0  0
   -2.5264    3.9790    1.0012 C   0  0  0  0  0  0  0  0  0  0  0  0
   -3.1365    2.7417    0.9254 C   0  0  0  0  0  0  0  0  0  0  0  0
   -2.4655    1.5677    0.9119 N   0  0  0  0  0  0  0  0  0  0  0  0
   -1.1175    1.5845    0.9482 C   0  0  0  0  0  0  0  0  0  0  0  0
   -0.4374    2.8033    1.0541 C   0  0  0  0  0  0  0  0  0  0  0  0
   -1.1430    4.0069    1.0760 C   0  0  0  0  0  0  0  0  0  0  0  0
   -0.3957    0.3792    0.9501 N   0  0  0  0  0  0  0  0  0  0  0  0
   -1.2123   -0.8231    1.2316 C   0  0  0  0  0  0  0  0  0  0  0  0
    0.6204    0.2687   -0.1164 C   0  0  0  0  0  0  0  0  0  0  0  0
    1.8252   -0.5877    0.3442 C   0  0  0  0  0  0  0  0  0  0  0  0
    2.7472   -0.9716   -0.7468 N   0  0  0  0  0  0  0  0  0  0  0  0
    3.4480    0.1844   -1.3073 C   0  0  0  0  0  0  0  0  0  0  0  0
    3.7165   -1.9565   -0.2595 C   0  0  0  0  0  0  0  0  0  0  0  0
   -1.7982   -1.6026    0.0740 C   0  0  0  0  0  0  0  0  0  0  0  0
   -1.1900   -2.5749   -0.7012 C   0  0  0  0  0  0  0  0  0  0  0  0
   -2.0583   -3.1078   -1.6963 C   0  0  0  0  0  0  0  0  0  0  0  0
   -3.3078   -2.5369   -1.6429 C   0  0  0  0  0  0  0  0  0  0  0  0
   -3.4321   -1.3770   -0.3957 S   0  0  0  0  0  0  0  0  0  0  0  0
    0.1236    0.1664   -0.0649 N   0  0  0  0  0  0  0  0  0  0  0  0
    0.7314    1.3975    0.3004 C   0  0  0  0  0  0  0  0  0  0  0  0
    2.1429   -1.3126    0.2736 C   0  0  0  0  0  0  0  0  0  0  0  0
    2.3508   -2.3215   -1.0969 S   0  0  0  0  0  0  0  0  0  0  0  0
    0.7575   -0.9135    0.7231 C   0  0  0  0  0  0  0  0  0  0  0  0
    0.4110    1.9948    1.4692 N   0  0  0  0  0  0  0  0  0  0  0  0
    4.0536   -2.2899   -0.9391 C   0  0  0  0  0  0  0  0  0  0  0  0
    3.3557   -0.9600    0.8323 C   0  0  0  0  0  0  0  0  0  0  0  0
   -1.3408    0.2665    0.1432 C   0  0  0  0  0  0  0  0  0  0  0  0
    4.4588   -1.5236    0.1294 C   0  0  0  0  0  0  0  0  0  0  0  0
   -3.5610   -0.6094   -0.7426 N   0  0  0  0  0  0  0  0  0  0  0  0
   -2.0859   -0.7302   -0.7791 C   0  0  0  0  0  0  0  0  0  0  0  0
    1.6672    1.9507   -0.5755 C   0  0  0  0  0  0  0  0  0  0  0  0
    1.0186    3.1673    1.7590 C   0  0  0  0  0  0  0  0  0  0  0  0
   -4.1141   -1.0328    0.5442 C   0  0  0  0  0  0  0  0  0  0  0  0
   -4.1537   -1.4081   -1.8182 C   0  0  0  0  0  0  0  0  0  0  0  0
    2.2817    3.1564   -0.2528 C   0  0  0  0  0  0  0  0  0  0  0  0
    1.9465    3.7835    0.9398 C   0  0  0  0  0  0  0  0  0  0  0  0
   -1.8889    0.0687    0.3079 C   0  0  0  0  0  0  0  0  0  0  0  0
    1.8887   -0.0693   -0.3081 C   0  0  0  0  0  0  0  0  0  0  0  0
   -0.4465   -0.1167    0.4860 C   0  0  0  0  0  0  0  0  0  0  0  0
    0.4463    0.1188   -0.4851 C   0  0  0  0  0  0  0  0  0  0  0  0
   -2.7203   -0.1366    1.1731 O   0  0  0  0  0  0  0  0  0  0  0  0
    2.7210    0.1402   -1.1714 O   0  0  0  0  0  0  0  0  0  0  0  0
    2.2345   -0.5020    0.9130 O   0  0  0  0  0  0  0  0  0  0  0  0
   -2.2352    0.4949   -0.9159 O   0  0  0  0  0  0  0  0  0  0  0  0
    1.8935   -0.1387   -0.5264 C   0  0  0  0  0  0  0  0  0  0  0  0
   -1.8399    0.2060    0.0718 C   0  0  0  0  0  0  0  0  0  0  0  0
    0.4414   -0.0271   -0.6919 C   0  0  0  0  0  0  0  0  0  0  0  0
   -0.4046    0.1000    0.3391 C   0  0  0  0  0  0  0  0  0  0  0  0
    2.6845   -0.2540   -1.4446 O   0  0  0  0  0  0  0  0  0  0  0  0
   -2.3908    0.1906   -1.0113 O   0  0  0  0  0  0  0  0  0  0  0  0
   -2.5155    0.3300    1.2239 O   0  0  0  0  0  0  0  0  0  0  0  0
    2.2990   -0.1063    0.7516 O   0  0  0  0  0  0  0  0  0  0  0  0
   -0.2639   -0.0254   -1.6270 H   0  0  0  0  0  0  0  0  0  0  0  0
    0.2178    0.0212    1.4382 H   0  0  0  0  0  0  0  0  0  0  0  0
    3.5138    0.4518    0.6915 H   0  0  0  0  0  0  0  0  0  0  0  0
   -3.1726   -0.4190    1.0777 H   0  0  0  0  0  0  0  0  0  0  0  0
   -3.1125    4.8905    1.0116 H   0  0  0  0  0  0  0  0  0  0  0  0
   -4.2186    2.6547    0.8728 H   0  0  0  0  0  0  0  0  0  0  0  0
    0.6427    2.8224    1.1504 H   0  0  0  0  0  0  0  0  0  0  0  0
   -0.6144    4.9515    1.1606 H   0  0  0  0  0  0  0  0  0  0  0  0
   -0.5575   -1.5208    1.7727 H   0  0  0  0  0  0  0  0  0  0  0  0
   -1.9936   -0.6008    1.9734 H   0  0  0  0  0  0  0  0  0  0  0  0
    0.1744   -0.1470   -1.0268 H   0  0  0  0  0  0  0  0  0  0  0  0
    1.0068    1.2513   -0.4075 H   0  0  0  0  0  0  0  0  0  0  0  0
    2.3646   -0.0535    1.1389 H   0  0  0  0  0  0  0  0  0  0  0  0
    1.4430   -1.5082    0.8017 H   0  0  0  0  0  0  0  0  0  0  0  0
    4.0300    0.7201   -0.5492 H   0  0  0  0  0  0  0  0  0  0  0  0
    4.1285   -0.1318   -2.1074 H   0  0  0  0  0  0  0  0  0  0  0  0
    2.7483    0.8874   -1.7681 H   0  0  0  0  0  0  0  0  0  0  0  0
    4.3422   -1.5555    0.5461 H   0  0  0  0  0  0  0  0  0  0  0  0
    4.3716   -2.2850   -1.0746 H   0  0  0  0  0  0  0  0  0  0  0  0
    3.2075   -2.8536    0.1118 H   0  0  0  0  0  0  0  0  0  0  0  0
   -0.1600   -2.8848   -0.5702 H   0  0  0  0  0  0  0  0  0  0  0  0
   -1.7791   -3.8681   -2.4133 H   0  0  0  0  0  0  0  0  0  0  0  0
   -4.1602   -2.7464   -2.2734 H   0  0  0  0  0  0  0  0  0  0  0  0
    0.1277   -1.8108    0.6688 H   0  0  0  0  0  0  0  0  0  0  0  0
    0.7844   -0.6579    1.7924 H   0  0  0  0  0  0  0  0  0  0  0  0
    4.6735   -2.8319   -1.6397 H   0  0  0  0  0  0  0  0  0  0  0  0
    3.4431   -0.3151    1.6986 H   0  0  0  0  0  0  0  0  0  0  0  0
   -1.5894    0.0833    1.1958 H   0  0  0  0  0  0  0  0  0  0  0  0
   -1.6987    1.2735   -0.1148 H   0  0  0  0  0  0  0  0  0  0  0  0
    5.4970   -1.3718    0.3962 H   0  0  0  0  0  0  0  0  0  0  0  0
   -1.7407   -0.5360   -1.8045 H   0  0  0  0  0  0  0  0  0  0  0  0
   -1.7880   -1.7605   -0.5446 H   0  0  0  0  0  0  0  0  0  0  0  0
    1.9068    1.4393   -1.5026 H   0  0  0  0  0  0  0  0  0  0  0  0
    0.7239    3.6160    2.7029 H   0  0  0  0  0  0  0  0  0  0  0  0
   -3.7713   -0.3847    1.3552 H   0  0  0  0  0  0  0  0  0  0  0  0
   -5.2082   -0.9549    0.5357 H   0  0  0  0  0  0  0  0  0  0  0  0
   -3.8456   -2.0663    0.7881 H   0  0  0  0  0  0  0  0  0  0  0  0
   -3.7947   -1.0669   -2.7954 H   0  0  0  0  0  0  0  0  0  0  0  0
   -5.2434   -1.2908   -1.8297 H   0  0  0  0  0  0  0  0  0  0  0  0
   -3.9210   -2.4749   -1.7162 H   0  0  0  0  0  0  0  0  0  0  0  0
    3.0062    3.6003   -0.9279 H   0  0  0  0  0  0  0  0  0  0  0  0
    2.3946    4.7286    1.2213 H   0  0  0  0  0  0  0  0  0  0  0  0
   -0.1553   -0.4649    1.4709 H   0  0  0  0  0  0  0  0  0  0  0  0
    0.1556    0.4676   -1.4698 H   0  0  0  0  0  0  0  0  0  0  0  0
    3.2116   -0.5705    0.8713 H   0  0  0  0  0  0  0  0  0  0  0  0
   -3.2117    0.5698   -0.8719 H   0  0  0  0  0  0  0  0  0  0  0  0
    0.0950   -0.0524   -1.7207 H   0  0  0  0  0  0  0  0  0  0  0  0
   -0.0823    0.1286    1.3727 H   0  0  0  0  0  0  0  0  0  0  0  0
   -3.4538    0.3914    0.9479 H   0  0  0  0  0  0  0  0  0  0  0  0
    3.2735   -0.1917    0.6878 H   0  0  0  0  0  0  0  0  0  0  0  0
  2  4  1  0
  3  1  1  0
  4  3  2  0
  5  1  2  0
  6  2  2  0
  7  2  1  0
  8  1  1  0
 15 17  1  0
 12 15  1  0
 17 18  1  0
 11 12  1  0
 18 19  1  0
 15 16  1  0
 19 20  1  0
 19 21  1  0
 16 22  1  0
 23 24  1  0
 12 13  2  0
 10 11  2  0
 13 14  1  0
 22 23  2  0
 24 25  2  0
 25 26  1  0
 26 22  1  0
 14  9  2  0
  9 10  1  0
 28 27  1  0
 29 31  1  0
 30 29  1  0
 31 27  1  0
 32 28  2  0
 33 30  1  0
 34 29  2  0
 35 27  1  0
 36 34  1  0
 37 38  1  0
 38 35  1  0
 39 28  1  0
 40 32  1  0
 41 37  1  0
 42 37  1  0
 43 39  2  0
 44 40  2  0
 36 33  2  0
 43 44  1  0
 46 48  1  0
 47 45  1  0
 48 47  2  0
 49 45  2  0
 50 46  2  0
 51 46  1  0
 52 45  1  0
 54 56  1  0
 55 53  1  0
 56 55  2  0
 57 53  2  0
 58 54  2  0
 59 54  1  0
 60 53  1  0
  3 61  1  0
  4 62  1  0
  7 63  1  0
  8 64  1  0
  9 65  1  0
 10 66  1  0
 13 67  1  0
 14 68  1  0
 16 69  1  0
 16 70  1  0
 17 71  1  0
 17 72  1  0
 18 73  1  0
 18 74  1  0
 20 75  1  0
 20 76  1  0
 20 77  1  0
 21 78  1  0
 21 79  1  0
 21 80  1  0
 23 81  1  0
 24 82  1  0
 25 83  1  0
 31 84  1  0
 31 85  1  0
 33 86  1  0
 34 87  1  0
 35 88  1  0
 35 89  1  0
 36 90  1  0
 38 91  1  0
 38 92  1  0
 39 93  1  0
 40 94  1  0
 41 95  1  0
 41 96  1  0
 41 97  1  0
 42 98  1  0
 42 99  1  0
 42100  1  0
 43101  1  0
 44102  1  0
 47103  1  0
 48104  1  0
 51105  1  0
 52106  1  0
 55107  1  0
 56108  1  0
 59109  1  0
 60110  1  0
M  END
$$$$
