
     RDKit          3D

 21 23  0  0  0  0  0  0  0  0999 V2000
    0.8983    0.1152    0.0672 C   0  0  0  0  0  0  0  0  0  0  0  0
    0.1876    0.9163   -0.7011 N   0  0  0  0  0  0  0  0  0  0  0  0
    2.4645    0.1423    0.1762 C   0  0  0  0  0  0  0  0  0  0  0  0
    0.0813   -0.7448    0.7577 N   0  0  0  0  0  0  0  0  0  0  0  0
    3.2236    1.0408   -0.5532 N   0  0  0  0  0  0  0  0  0  0  0  0
   -1.1221    0.5619   -0.4992 C   0  0  0  0  0  0  0  0  0  0  0  0
   -1.2192   -0.4810    0.4141 C   0  0  0  0  0  0  0  0  0  0  0  0
    4.8663   -0.3763    0.8384 S   0  0  0  0  0  0  0  0  0  0  0  0
    4.4971    0.8625   -0.2876 C   0  0  0  0  0  0  0  0  0  0  0  0
    3.1875   -0.7083    0.9892 C   0  0  0  0  0  0  0  0  0  0  0  0
   -2.2922    1.0886   -1.0640 C   0  0  0  0  0  0  0  0  0  0  0  0
   -2.4335   -1.0455    0.8098 C   0  0  0  0  0  0  0  0  0  0  0  0
   -3.5911   -0.5067    0.2354 C   0  0  0  0  0  0  0  0  0  0  0  0
   -3.5253    0.5422   -0.6858 C   0  0  0  0  0  0  0  0  0  0  0  0
    0.3857   -1.4514    1.4079 H   0  0  0  0  0  0  0  0  0  0  0  0
    5.2716    1.4604   -0.7501 H   0  0  0  0  0  0  0  0  0  0  0  0
    2.8412   -1.4884    1.6491 H   0  0  0  0  0  0  0  0  0  0  0  0
   -2.2315    1.9024   -1.7779 H   0  0  0  0  0  0  0  0  0  0  0  0
   -2.4871   -1.8593    1.5244 H   0  0  0  0  0  0  0  0  0  0  0  0
   -4.5624   -0.9126    0.5116 H   0  0  0  0  0  0  0  0  0  0  0  0
   -4.4404    0.9417   -1.1166 H   0  0  0  0  0  0  0  0  0  0  0  0
  2  1  2  0
  3  1  1  0
  4  1  1  0
  5  3  1  0
  6  2  1  0
  7  4  1  0
  8 10  1  0
  9  5  2  0
 10  3  2  0
 11  6  2  0
 12  7  2  0
 13 12  1  0
 14 11  1  0
  6  7  1  0
  9  8  1  0
 14 13  2  0
  4 15  1  0
  9 16  1  0
 10 17  1  0
 11 18  1  0
 12 19  1  0
 13 20  1  0
 14 21  1  0
M  END
$$$$
