
     RDKit          3D

 21 23  0  0  0  0  0  0  0  0999 V2000
    0.9080   -0.0003    0.0738 C   0  0  0  0  0  0  0  0  0  0  0  0
    0.2997   -0.6642   -0.8868 N   0  0  0  0  0  0  0  0  0  0  0  0
    2.4458    0.1532    0.2431 C   0  0  0  0  0  0  0  0  0  0  0  0
    0.0109    0.5623    0.9415 N   0  0  0  0  0  0  0  0  0  0  0  0
    2.9821    0.8768    1.2950 N   0  0  0  0  0  0  0  0  0  0  0  0
   -1.0423   -0.5219   -0.6251 C   0  0  0  0  0  0  0  0  0  0  0  0
   -1.2519    0.2441    0.5179 C   0  0  0  0  0  0  0  0  0  0  0  0
    4.9460   -0.0303   -0.1237 S   0  0  0  0  0  0  0  0  0  0  0  0
    4.2943    0.8469    1.2008 C   0  0  0  0  0  0  0  0  0  0  0  0
    3.3525   -0.4114   -0.6279 C   0  0  0  0  0  0  0  0  0  0  0  0
   -2.1498   -1.0224   -1.3248 C   0  0  0  0  0  0  0  0  0  0  0  0
   -2.5198    0.5485    1.0170 C   0  0  0  0  0  0  0  0  0  0  0  0
   -3.6123    0.0398    0.3046 C   0  0  0  0  0  0  0  0  0  0  0  0
   -3.4342   -0.7324   -0.8464 C   0  0  0  0  0  0  0  0  0  0  0  0
    0.2667    1.1130    1.7479 H   0  0  0  0  0  0  0  0  0  0  0  0
    4.9374    1.3451    1.9147 H   0  0  0  0  0  0  0  0  0  0  0  0
    3.1529   -1.0092   -1.5063 H   0  0  0  0  0  0  0  0  0  0  0  0
   -2.0047   -1.6209   -2.2171 H   0  0  0  0  0  0  0  0  0  0  0  0
   -2.6588    1.1476    1.9101 H   0  0  0  0  0  0  0  0  0  0  0  0
   -4.6211    0.2503    0.6548 H   0  0  0  0  0  0  0  0  0  0  0  0
   -4.3015   -1.1145   -1.3796 H   0  0  0  0  0  0  0  0  0  0  0  0
  2  1  2  0
  3  1  1  0
  4  1  1  0
  5  3  1  0
  6  2  1  0
  7  4  1  0
  8 10  1  0
  9  5  2  0
 10  3  2  0
 11  6  2  0
 12  7  2  0
 13 12  1  0
 14 11  1  0
  6  7  1  0
  9  8  1  0
 14 13  2  0
  4 15  1  0
  9 16  1  0
 10 17  1  0
 11 18  1  0
 12 19  1  0
 13 20  1  0
 14 21  1  0
M  END
$$$$
