
     RDKit          3D

 21 23  0  0  0  0  0  0  0  0999 V2000
   -0.5223   -0.7434    0.0083 C   0  0  0  0  0  0  0  0  0  0  0  0
    0.5202   -0.7608   -0.7957 N   0  0  0  0  0  0  0  0  0  0  0  0
   -1.5676   -1.8828    0.1701 C   0  0  0  0  0  0  0  0  0  0  0  0
   -0.5927    0.4275    0.7141 N   0  0  0  0  0  0  0  0  0  0  0  0
   -2.6310   -1.7601    1.0487 N   0  0  0  0  0  0  0  0  0  0  0  0
    1.1442    0.4479   -0.5979 C   0  0  0  0  0  0  0  0  0  0  0  0
    0.4660    1.2141    0.3455 C   0  0  0  0  0  0  0  0  0  0  0  0
   -2.8152   -4.0716   -0.0983 S   0  0  0  0  0  0  0  0  0  0  0  0
   -3.3550   -2.8573    0.9893 C   0  0  0  0  0  0  0  0  0  0  0  0
   -1.5006   -3.0632   -0.5383 C   0  0  0  0  0  0  0  0  0  0  0  0
    2.3037    0.9658   -1.1929 C   0  0  0  0  0  0  0  0  0  0  0  0
    0.8783    2.4880    0.7409 C   0  0  0  0  0  0  0  0  0  0  0  0
    2.0377    2.9873    0.1356 C   0  0  0  0  0  0  0  0  0  0  0  0
    2.7405    2.2422   -0.8149 C   0  0  0  0  0  0  0  0  0  0  0  0
   -1.3143    0.6457    1.3854 H   0  0  0  0  0  0  0  0  0  0  0  0
   -4.2448   -2.9969    1.5894 H   0  0  0  0  0  0  0  0  0  0  0  0
   -0.7622   -3.3639   -1.2684 H   0  0  0  0  0  0  0  0  0  0  0  0
    2.8444    0.3826   -1.9297 H   0  0  0  0  0  0  0  0  0  0  0  0
    0.3334    3.0669    1.4784 H   0  0  0  0  0  0  0  0  0  0  0  0
    2.3988    3.9763    0.4113 H   0  0  0  0  0  0  0  0  0  0  0  0
    3.6383    2.6555   -1.2687 H   0  0  0  0  0  0  0  0  0  0  0  0
  2  1  2  0
  3  1  1  0
  4  1  1  0
  5  3  1  0
  6  2  1  0
  7  4  1  0
  8 10  1  0
  9  5  2  0
 10  3  2  0
 11  6  2  0
 12  7  2  0
 13 12  1  0
 14 11  1  0
  6  7  1  0
  9  8  1  0
 14 13  2  0
  4 15  1  0
  9 16  1  0
 10 17  1  0
 11 18  1  0
 12 19  1  0
 13 20  1  0
 14 21  1  0
M  END
$$$$
