
     RDKit          3D

 21 23  0  0  0  0  0  0  0  0999 V2000
    0.8612   -0.2816   -0.1822 C   0  0  0  0  0  0  0  0  0  0  0  0
   -0.0546   -1.2257   -0.2429 N   0  0  0  0  0  0  0  0  0  0  0  0
    2.3984   -0.4957   -0.2737 C   0  0  0  0  0  0  0  0  0  0  0  0
    0.2972    0.9557   -0.0238 N   0  0  0  0  0  0  0  0  0  0  0  0
    3.2763    0.5726   -0.1979 N   0  0  0  0  0  0  0  0  0  0  0  0
   -1.2550   -0.5676   -0.1186 C   0  0  0  0  0  0  0  0  0  0  0  0
   -1.0631    0.8039    0.0205 C   0  0  0  0  0  0  0  0  0  0  0  0
    4.6765   -1.5826   -0.4923 S   0  0  0  0  0  0  0  0  0  0  0  0
    4.5058    0.1153   -0.3019 C   0  0  0  0  0  0  0  0  0  0  0  0
    2.9705   -1.7394   -0.4331 C   0  0  0  0  0  0  0  0  0  0  0  0
   -2.5609   -1.0786   -0.1153 C   0  0  0  0  0  0  0  0  0  0  0  0
   -2.1105    1.7155    0.1653 C   0  0  0  0  0  0  0  0  0  0  0  0
   -3.4065    1.1860    0.1661 C   0  0  0  0  0  0  0  0  0  0  0  0
   -3.6314   -0.1863    0.0284 C   0  0  0  0  0  0  0  0  0  0  0  0
    0.8208    1.8160    0.0454 H   0  0  0  0  0  0  0  0  0  0  0  0
    5.3700    0.7661   -0.2704 H   0  0  0  0  0  0  0  0  0  0  0  0
    2.4761   -2.6974   -0.5142 H   0  0  0  0  0  0  0  0  0  0  0  0
   -2.7287   -2.1443   -0.2226 H   0  0  0  0  0  0  0  0  0  0  0  0
   -1.9368    2.7806    0.2722 H   0  0  0  0  0  0  0  0  0  0  0  0
   -4.2560    1.8572    0.2762 H   0  0  0  0  0  0  0  0  0  0  0  0
   -4.6492   -0.5696    0.0326 H   0  0  0  0  0  0  0  0  0  0  0  0
  2  1  2  0
  3  1  1  0
  4  1  1  0
  5  3  1  0
  6  2  1  0
  7  4  1  0
  8 10  1  0
  9  5  2  0
 10  3  2  0
 11  6  2  0
 12  7  2  0
 13 12  1  0
 14 11  1  0
  6  7  1  0
  9  8  1  0
 14 13  2  0
  4 15  1  0
  9 16  1  0
 10 17  1  0
 11 18  1  0
 12 19  1  0
 13 20  1  0
 14 21  1  0
M  END
$$$$
