
     RDKit          3D

 18 11  0  0  0  0  0  0  0  0999 V2000
   -0.0031    0.1645   -0.0000 Si  0  0  0  0  0  4  0  0  0  0  0  0
    1.5548   -0.0820    0.0000 O   0  0  0  0  0  0  0  0  0  0  0  0
   -1.5517   -0.0825   -0.0000 O   0  0  0  0  0  0  0  0  0  0  0  0
    0.8929    0.0000    0.0000 Mg  0  0  0  0  0  2  0  0  0  0  0  0
   -0.8929    0.0000    0.0000 O   0  0  0  0  0  0  0  0  0  0  0  0
    0.8972    0.0000    0.0000 Mg  0  0  0  0  0  2  0  0  0  0  0  0
   -0.8972    0.0000    0.0000 O   0  0  0  0  0  0  0  0  0  0  0  0
    0.8940    0.0000    0.0000 Mg  0  0  0  0  0  2  0  0  0  0  0  0
   -0.8940    0.0000    0.0000 O   0  0  0  0  0  0  0  0  0  0  0  0
   -0.0377    0.7800    0.0000 Si  0  0  0  0  0  4  0  0  0  0  0  0
    1.5439    0.7183    0.0000 O   0  0  0  0  0  0  0  0  0  0  0  0
   -1.5063    0.1949    0.0000 O   0  0  0  0  0  0  0  0  0  0  0  0
   -0.0936   -0.5589    0.0000 Si  0  0  0  0  0  4  0  0  0  0  0  0
    1.4874   -0.6489    0.0000 O   0  0  0  0  0  0  0  0  0  0  0  0
   -1.3938    0.3487    0.0000 O   0  0  0  0  0  0  0  0  0  0  0  0
   -0.0027    0.0991   -0.0000 Si  0  0  0  0  0  4  0  0  0  0  0  0
   -1.5591   -0.0497   -0.0000 O   0  0  0  0  0  0  0  0  0  0  0  0
    1.5618   -0.0494    0.0000 O   0  0  0  0  0  0  0  0  0  0  0  0
  1  2  2  0
  1  3  2  0
  4  5  2  0
  6  7  2  0
  8  9  2  0
 10 11  2  0
 10 12  2  0
 13 14  2  0
 13 15  2  0
 16 17  2  0
 16 18  2  0
M  END
$$$$
