
     RDKit          3D

 18 11  0  0  0  0  0  0  0  0999 V2000
   -0.0006    0.8410   -0.0000 Si  0  0  0  0  0  4  0  0  0  0  0  0
   -1.5727    0.8883   -0.0000 O   0  0  0  0  0  0  0  0  0  0  0  0
    1.5732    0.9541    0.0000 O   0  0  0  0  0  0  0  0  0  0  0  0
    0.8923    0.0000    0.0000 Mg  0  0  0  0  0  2  0  0  0  0  0  0
   -0.8923    0.0000    0.0000 O   0  0  0  0  0  0  0  0  0  0  0  0
    0.8978    0.0000    0.0000 Mg  0  0  0  0  0  2  0  0  0  0  0  0
   -0.8978    0.0000    0.0000 O   0  0  0  0  0  0  0  0  0  0  0  0
    0.8921    0.0000    0.0000 Mg  0  0  0  0  0  2  0  0  0  0  0  0
   -0.8921    0.0000    0.0000 O   0  0  0  0  0  0  0  0  0  0  0  0
   -0.0046    0.1055   -0.0000 Si  0  0  0  0  0  4  0  0  0  0  0  0
    1.5643   -0.0525    0.0000 O   0  0  0  0  0  0  0  0  0  0  0  0
   -1.5597   -0.0530   -0.0000 O   0  0  0  0  0  0  0  0  0  0  0  0
    0.0813   -0.7188    0.0000 Si  0  0  0  0  0  4  0  0  0  0  0  0
   -1.4803   -0.9650    0.0000 O   0  0  0  0  0  0  0  0  0  0  0  0
    1.3989    0.1583    0.0000 O   0  0  0  0  0  0  0  0  0  0  0  0
   -0.0014    0.1090   -0.0000 Si  0  0  0  0  0  4  0  0  0  0  0  0
    1.5584   -0.0544    0.0000 O   0  0  0  0  0  0  0  0  0  0  0  0
   -1.5570   -0.0546   -0.0000 O   0  0  0  0  0  0  0  0  0  0  0  0
  1  2  2  0
  1  3  2  0
  4  5  2  0
  6  7  2  0
  8  9  2  0
 10 11  2  0
 10 12  2  0
 13 14  2  0
 13 15  2  0
 16 17  2  0
 16 18  2  0
M  END
$$$$
