
     RDKit          3D

 18 11  0  0  0  0  0  0  0  0999 V2000
   -0.0023    0.1061   -0.0000 Si  0  0  0  0  0  4  0  0  0  0  0  0
    1.5680   -0.0529    0.0000 O   0  0  0  0  0  0  0  0  0  0  0  0
   -1.5657   -0.0532   -0.0000 O   0  0  0  0  0  0  0  0  0  0  0  0
    0.8956    0.0000    0.0000 Mg  0  0  0  0  0  2  0  0  0  0  0  0
   -0.8956    0.0000    0.0000 O   0  0  0  0  0  0  0  0  0  0  0  0
    0.8923    0.0000    0.0000 Mg  0  0  0  0  0  2  0  0  0  0  0  0
   -0.8923    0.0000    0.0000 O   0  0  0  0  0  0  0  0  0  0  0  0
    0.8965    0.0000    0.0000 Mg  0  0  0  0  0  2  0  0  0  0  0  0
   -0.8965    0.0000    0.0000 O   0  0  0  0  0  0  0  0  0  0  0  0
   -0.0046    0.1161   -0.0000 Si  0  0  0  0  0  4  0  0  0  0  0  0
    1.5631   -0.0578    0.0000 O   0  0  0  0  0  0  0  0  0  0  0  0
   -1.5586   -0.0583   -0.0000 O   0  0  0  0  0  0  0  0  0  0  0  0
   -0.0023    0.1503   -0.0000 Si  0  0  0  0  0  4  0  0  0  0  0  0
    1.5538   -0.0750    0.0000 O   0  0  0  0  0  0  0  0  0  0  0  0
   -1.5515   -0.0753   -0.0000 O   0  0  0  0  0  0  0  0  0  0  0  0
   -0.0005    0.0942   -0.0000 Si  0  0  0  0  0  4  0  0  0  0  0  0
   -1.5640   -0.0471   -0.0000 O   0  0  0  0  0  0  0  0  0  0  0  0
    1.5646   -0.0471    0.0000 O   0  0  0  0  0  0  0  0  0  0  0  0
  1  2  2  0
  1  3  2  0
  4  5  2  0
  6  7  2  0
  8  9  2  0
 10 11  2  0
 10 12  2  0
 13 14  2  0
 13 15  2  0
 16 17  2  0
 16 18  2  0
M  END
$$$$
