
     RDKit          3D

 18 11  0  0  0  0  0  0  0  0999 V2000
   -0.0382   -0.1278    0.0000 Si  0  0  0  0  0  4  0  0  0  0  0  0
    1.5279   -0.1495    0.0000 O   0  0  0  0  0  0  0  0  0  0  0  0
   -1.4897    0.5029    0.0000 O   0  0  0  0  0  0  0  0  0  0  0  0
    0.8957    0.0000    0.0000 Mg  0  0  0  0  0  2  0  0  0  0  0  0
   -0.8957    0.0000    0.0000 O   0  0  0  0  0  0  0  0  0  0  0  0
    0.8977    0.0000    0.0000 Mg  0  0  0  0  0  2  0  0  0  0  0  0
   -0.8977    0.0000    0.0000 O   0  0  0  0  0  0  0  0  0  0  0  0
    0.8960    0.0000    0.0000 Mg  0  0  0  0  0  2  0  0  0  0  0  0
   -0.8960    0.0000    0.0000 O   0  0  0  0  0  0  0  0  0  0  0  0
   -0.0964   -0.1306    0.0000 Si  0  0  0  0  0  4  0  0  0  0  0  0
    1.4509   -0.4574    0.0000 O   0  0  0  0  0  0  0  0  0  0  0  0
   -1.3546    0.8297    0.0000 O   0  0  0  0  0  0  0  0  0  0  0  0
   -0.0038    0.0310   -0.0000 Si  0  0  0  0  0  4  0  0  0  0  0  0
    1.5684   -0.0154    0.0000 O   0  0  0  0  0  0  0  0  0  0  0  0
   -1.5646   -0.0156   -0.0000 O   0  0  0  0  0  0  0  0  0  0  0  0
   -0.0015    0.1102   -0.0000 Si  0  0  0  0  0  4  0  0  0  0  0  0
   -1.5540   -0.0552   -0.0000 O   0  0  0  0  0  0  0  0  0  0  0  0
    1.5555   -0.0550    0.0000 O   0  0  0  0  0  0  0  0  0  0  0  0
  1  2  2  0
  1  3  2  0
  4  5  2  0
  6  7  2  0
  8  9  2  0
 10 11  2  0
 10 12  2  0
 13 14  2  0
 13 15  2  0
 16 17  2  0
 16 18  2  0
M  END
$$$$
