
     RDKit          3D

 18 11  0  0  0  0  0  0  0  0999 V2000
    0.0674    0.1486    0.0000 Si  0  0  0  0  0  4  0  0  0  0  0  0
   -1.4875    0.4351    0.0000 O   0  0  0  0  0  0  0  0  0  0  0  0
    1.4202   -0.6721    0.0000 O   0  0  0  0  0  0  0  0  0  0  0  0
    0.8906    0.0000    0.0000 Mg  0  0  0  0  0  2  0  0  0  0  0  0
   -0.8906    0.0000    0.0000 O   0  0  0  0  0  0  0  0  0  0  0  0
    0.8921    0.0000    0.0000 Mg  0  0  0  0  0  2  0  0  0  0  0  0
   -0.8921    0.0000    0.0000 O   0  0  0  0  0  0  0  0  0  0  0  0
    0.8940    0.0000    0.0000 Mg  0  0  0  0  0  2  0  0  0  0  0  0
   -0.8940    0.0000    0.0000 O   0  0  0  0  0  0  0  0  0  0  0  0
   -0.0021    0.1769   -0.0000 Si  0  0  0  0  0  4  0  0  0  0  0  0
    1.5552   -0.0882    0.0000 O   0  0  0  0  0  0  0  0  0  0  0  0
   -1.5530   -0.0886   -0.0000 O   0  0  0  0  0  0  0  0  0  0  0  0
   -0.0004    0.1424   -0.0000 Si  0  0  0  0  0  4  0  0  0  0  0  0
    1.5520   -0.0712    0.0000 O   0  0  0  0  0  0  0  0  0  0  0  0
   -1.5516   -0.0712   -0.0000 O   0  0  0  0  0  0  0  0  0  0  0  0
   -0.0034    0.1027   -0.0000 Si  0  0  0  0  0  4  0  0  0  0  0  0
    1.5608   -0.0512    0.0000 O   0  0  0  0  0  0  0  0  0  0  0  0
   -1.5573   -0.0515   -0.0000 O   0  0  0  0  0  0  0  0  0  0  0  0
  1  2  2  0
  1  3  2  0
  4  5  2  0
  6  7  2  0
  8  9  2  0
 10 11  2  0
 10 12  2  0
 13 14  2  0
 13 15  2  0
 16 17  2  0
 16 18  2  0
M  END
$$$$
