
     RDKit          3D

 18 11  0  0  0  0  0  0  0  0999 V2000
   -0.0083   -0.2272    0.0000 Si  0  0  0  0  0  4  0  0  0  0  0  0
    1.5505   -0.4955    0.0000 O   0  0  0  0  0  0  0  0  0  0  0  0
   -1.5422    0.1570    0.0000 O   0  0  0  0  0  0  0  0  0  0  0  0
    0.8989    0.0000    0.0000 Mg  0  0  0  0  0  2  0  0  0  0  0  0
   -0.8989    0.0000    0.0000 O   0  0  0  0  0  0  0  0  0  0  0  0
    0.8933    0.0000    0.0000 Mg  0  0  0  0  0  2  0  0  0  0  0  0
   -0.8933    0.0000    0.0000 O   0  0  0  0  0  0  0  0  0  0  0  0
    0.8943    0.0000    0.0000 Mg  0  0  0  0  0  2  0  0  0  0  0  0
   -0.8943    0.0000    0.0000 O   0  0  0  0  0  0  0  0  0  0  0  0
    0.0138    0.1454    0.0000 Si  0  0  0  0  0  4  0  0  0  0  0  0
    1.5275   -0.3180    0.0000 O   0  0  0  0  0  0  0  0  0  0  0  0
   -1.5413   -0.0296    0.0000 O   0  0  0  0  0  0  0  0  0  0  0  0
   -0.0012    0.0856   -0.0000 Si  0  0  0  0  0  4  0  0  0  0  0  0
   -1.5699   -0.0429   -0.0000 O   0  0  0  0  0  0  0  0  0  0  0  0
    1.5711   -0.0428    0.0000 O   0  0  0  0  0  0  0  0  0  0  0  0
   -0.0043    0.1120   -0.0000 Si  0  0  0  0  0  4  0  0  0  0  0  0
   -1.5569   -0.0562   -0.0000 O   0  0  0  0  0  0  0  0  0  0  0  0
    1.5612   -0.0558    0.0000 O   0  0  0  0  0  0  0  0  0  0  0  0
  1  2  2  0
  1  3  2  0
  4  5  2  0
  6  7  2  0
  8  9  2  0
 10 11  2  0
 10 12  2  0
 13 14  2  0
 13 15  2  0
 16 17  2  0
 16 18  2  0
M  END
$$$$
