
     RDKit          3D

 18 11  0  0  0  0  0  0  0  0999 V2000
    0.0334   -0.0026    0.0000 Si  0  0  0  0  0  4  0  0  0  0  0  0
    1.4553   -0.6952    0.0000 O   0  0  0  0  0  0  0  0  0  0  0  0
   -1.4887    0.4278    0.0000 O   0  0  0  0  0  0  0  0  0  0  0  0
    0.8974    0.0000    0.0000 Mg  0  0  0  0  0  2  0  0  0  0  0  0
   -0.8974    0.0000    0.0000 O   0  0  0  0  0  0  0  0  0  0  0  0
    0.8971    0.0000    0.0000 Mg  0  0  0  0  0  2  0  0  0  0  0  0
   -0.8971    0.0000    0.0000 O   0  0  0  0  0  0  0  0  0  0  0  0
    0.8994    0.0000    0.0000 Mg  0  0  0  0  0  2  0  0  0  0  0  0
   -0.8994    0.0000    0.0000 O   0  0  0  0  0  0  0  0  0  0  0  0
   -0.0003    0.1023   -0.0000 Si  0  0  0  0  0  4  0  0  0  0  0  0
   -1.5543   -0.0512   -0.0000 O   0  0  0  0  0  0  0  0  0  0  0  0
    1.5546   -0.0511    0.0000 O   0  0  0  0  0  0  0  0  0  0  0  0
   -0.0020    0.0661   -0.0000 Si  0  0  0  0  0  4  0  0  0  0  0  0
    1.5732   -0.0330    0.0000 O   0  0  0  0  0  0  0  0  0  0  0  0
   -1.5712   -0.0331   -0.0000 O   0  0  0  0  0  0  0  0  0  0  0  0
   -0.0021    0.0742   -0.0000 Si  0  0  0  0  0  4  0  0  0  0  0  0
    1.5746   -0.0370    0.0000 O   0  0  0  0  0  0  0  0  0  0  0  0
   -1.5725   -0.0372   -0.0000 O   0  0  0  0  0  0  0  0  0  0  0  0
  1  2  2  0
  1  3  2  0
  4  5  2  0
  6  7  2  0
  8  9  2  0
 10 11  2  0
 10 12  2  0
 13 14  2  0
 13 15  2  0
 16 17  2  0
 16 18  2  0
M  END
$$$$
