
     RDKit          3D

 18 11  0  0  0  0  0  0  0  0999 V2000
   -0.0028    0.0567   -0.0000 Si  0  0  0  0  0  4  0  0  0  0  0  0
    1.5670   -0.0283    0.0000 O   0  0  0  0  0  0  0  0  0  0  0  0
   -1.5642   -0.0284   -0.0000 O   0  0  0  0  0  0  0  0  0  0  0  0
    0.8945    0.0000    0.0000 Mg  0  0  0  0  0  2  0  0  0  0  0  0
   -0.8945    0.0000    0.0000 O   0  0  0  0  0  0  0  0  0  0  0  0
    0.8951    0.0000    0.0000 Mg  0  0  0  0  0  2  0  0  0  0  0  0
   -0.8951    0.0000    0.0000 O   0  0  0  0  0  0  0  0  0  0  0  0
    0.8922    0.0000    0.0000 Mg  0  0  0  0  0  2  0  0  0  0  0  0
   -0.8922    0.0000    0.0000 O   0  0  0  0  0  0  0  0  0  0  0  0
   -0.0006    0.1572   -0.0000 Si  0  0  0  0  0  4  0  0  0  0  0  0
    1.5558   -0.0785    0.0000 O   0  0  0  0  0  0  0  0  0  0  0  0
   -1.5552   -0.0786   -0.0000 O   0  0  0  0  0  0  0  0  0  0  0  0
   -0.0006    0.1327   -0.0000 Si  0  0  0  0  0  4  0  0  0  0  0  0
   -1.5511   -0.0664   -0.0000 O   0  0  0  0  0  0  0  0  0  0  0  0
    1.5516   -0.0663    0.0000 O   0  0  0  0  0  0  0  0  0  0  0  0
   -0.0029    0.1618   -0.0000 Si  0  0  0  0  0  4  0  0  0  0  0  0
   -1.5538   -0.0811   -0.0000 O   0  0  0  0  0  0  0  0  0  0  0  0
    1.5567   -0.0807    0.0000 O   0  0  0  0  0  0  0  0  0  0  0  0
  1  2  2  0
  1  3  2  0
  4  5  2  0
  6  7  2  0
  8  9  2  0
 10 11  2  0
 10 12  2  0
 13 14  2  0
 13 15  2  0
 16 17  2  0
 16 18  2  0
M  END
$$$$
