
     RDKit          3D

 43 42  0  0  0  0  0  0  0  0999 V2000
   -0.6985    0.2891    0.9133 C   0  0  0  0  0  0  0  0  0  0  0  0
   -1.9469   -1.2515   -0.6018 N   0  0  0  0  0  0  0  0  0  0  0  0
    0.7476    0.0790    0.5248 C   0  0  0  0  0  0  0  0  0  0  0  0
   -1.6838    0.1556   -0.2687 C   0  0  1  0  0  0  0  0  0  0  0  0
    1.5877    1.1771    0.2922 C   0  0  0  0  0  0  0  0  0  0  0  0
    1.2679   -1.2135    0.3798 C   0  0  0  0  0  0  0  0  0  0  0  0
   -3.0121    0.8373    0.0657 C   0  0  0  0  0  0  0  0  0  0  0  0
    2.9225    0.9843   -0.0689 C   0  0  0  0  0  0  0  0  0  0  0  0
    2.6022   -1.4050    0.0176 C   0  0  0  0  0  0  0  0  0  0  0  0
    3.4298   -0.3064   -0.2050 C   0  0  0  0  0  0  0  0  0  0  0  0
   -2.9607   -0.6096   -0.0489 C   0  0  0  0  0  0  0  0  0  0  0  0
    2.9422    0.0648    0.4342 C   0  0  0  0  0  0  0  0  0  0  0  0
   -3.7223   -1.1396   -0.8395 O   0  0  0  0  0  0  0  0  0  0  0  0
    3.6006   -0.9554    0.3245 O   0  0  0  0  0  0  0  0  0  0  0  0
    3.5252    1.2755    0.3640 O   0  0  0  0  0  0  0  0  0  0  0  0
   -3.4177    0.2482    0.8824 O   0  0  0  0  0  0  0  0  0  0  0  0
    1.4539    0.1446    0.6155 C   0  0  0  0  0  0  0  0  0  0  0  0
   -1.4715   -0.7925    0.0113 C   0  0  0  0  0  0  0  0  0  0  0  0
   -0.7578    0.3922   -0.6307 C   0  0  0  0  0  0  0  0  0  0  0  0
    0.7560    0.2006   -0.7385 C   0  0  0  0  0  0  0  0  0  0  0  0
   -0.9621   -0.4071    1.7211 H   0  0  0  0  0  0  0  0  0  0  0  0
   -0.7919    1.2895    1.3572 H   0  0  0  0  0  0  0  0  0  0  0  0
   -2.4178   -1.7097    0.1769 H   0  0  0  0  0  0  0  0  0  0  0  0
   -2.5889   -1.2997   -1.3919 H   0  0  0  0  0  0  0  0  0  0  0  0
   -1.2611    0.6433   -1.1555 H   0  0  0  0  0  0  0  0  0  0  0  0
    1.2081    2.1912    0.3909 H   0  0  0  0  0  0  0  0  0  0  0  0
    0.6289   -2.0795    0.5383 H   0  0  0  0  0  0  0  0  0  0  0  0
   -3.4807    0.3927    0.9509 H   0  0  0  0  0  0  0  0  0  0  0  0
   -2.8595    1.9036    0.2650 H   0  0  0  0  0  0  0  0  0  0  0  0
   -3.7177    0.7569   -0.7687 H   0  0  0  0  0  0  0  0  0  0  0  0
    3.5660    1.8418   -0.2460 H   0  0  0  0  0  0  0  0  0  0  0  0
    2.9925   -2.4127   -0.0954 H   0  0  0  0  0  0  0  0  0  0  0  0
    4.4678   -0.4564   -0.4885 H   0  0  0  0  0  0  0  0  0  0  0  0
    4.4756    1.0757    0.2300 H   0  0  0  0  0  0  0  0  0  0  0  0
   -4.3849    0.2765    0.7250 H   0  0  0  0  0  0  0  0  0  0  0  0
    1.2149    1.0238    1.2246 H   0  0  0  0  0  0  0  0  0  0  0  0
    1.1437   -0.7322    1.1938 H   0  0  0  0  0  0  0  0  0  0  0  0
   -1.1814   -0.9288    1.0585 H   0  0  0  0  0  0  0  0  0  0  0  0
   -1.2251   -1.7245   -0.5103 H   0  0  0  0  0  0  0  0  0  0  0  0
   -0.9749    1.3092   -0.0688 H   0  0  0  0  0  0  0  0  0  0  0  0
   -1.1603    0.5507   -1.6395 H   0  0  0  0  0  0  0  0  0  0  0  0
    1.1691    1.0320   -1.3239 H   0  0  0  0  0  0  0  0  0  0  0  0
    0.9754   -0.7111   -1.3082 H   0  0  0  0  0  0  0  0  0  0  0  0
  4  2  1  0
  3  1  1  0
  4  1  1  0
  5  3  2  0
  6  3  1  0
  4  7  1  0
  8  5  1  0
  9  6  2  0
 10  9  1  0
 10  8  2  0
 12 17  1  0
 13 11  2  0
 14 12  2  0
 15 12  1  0
 16 11  1  0
 17 20  1  0
 18 11  1  0
 19 18  1  0
 20 19  1  0
  1 21  1  0
  1 22  1  0
  2 23  1  0
  2 24  1  0
  4 25  1  6
  5 26  1  0
  6 27  1  0
  7 28  1  0
  7 29  1  0
  7 30  1  0
  8 31  1  0
  9 32  1  0
 10 33  1  0
 15 34  1  0
 16 35  1  0
 17 36  1  0
 17 37  1  0
 18 38  1  0
 18 39  1  0
 19 40  1  0
 19 41  1  0
 20 42  1  0
 20 43  1  0
M  END
$$$$
