
     RDKit          3D

 43 42  0  0  0  0  0  0  0  0999 V2000
   -0.7985    0.4404   -1.1940 C   0  0  0  0  0  0  0  0  0  0  0  0
   -1.9573   -1.5638   -0.2016 N   0  0  0  0  0  0  0  0  0  0  0  0
    0.5354    0.2536   -0.5064 C   0  0  0  0  0  0  0  0  0  0  0  0
   -2.0337   -0.1191   -0.4488 C   0  0  1  0  0  0  0  0  0  0  0  0
    1.3106   -0.8886   -0.7523 C   0  0  0  0  0  0  0  0  0  0  0  0
    1.0194    1.2197    0.3862 C   0  0  0  0  0  0  0  0  0  0  0  0
   -2.3101    0.5993    0.8714 C   0  0  0  0  0  0  0  0  0  0  0  0
    2.5384   -1.0641   -0.1120 C   0  0  0  0  0  0  0  0  0  0  0  0
    2.2473    1.0427    1.0259 C   0  0  0  0  0  0  0  0  0  0  0  0
    3.0058   -0.0993    0.7777 C   0  0  0  0  0  0  0  0  0  0  0  0
   -3.1469   -0.3130   -0.2671 C   0  0  0  0  0  0  0  0  0  0  0  0
    3.1469    0.3130    0.0637 C   0  0  0  0  0  0  0  0  0  0  0  0
   -3.2735   -0.8028   -1.3758 O   0  0  0  0  0  0  0  0  0  0  0  0
    3.2735    0.8028    1.1724 O   0  0  0  0  0  0  0  0  0  0  0  0
    4.2265    0.0637   -0.7032 O   0  0  0  0  0  0  0  0  0  0  0  0
   -4.2265   -0.0637    0.4998 O   0  0  0  0  0  0  0  0  0  0  0  0
    1.8682   -0.0827   -0.6237 C   0  0  0  0  0  0  0  0  0  0  0  0
   -1.8682    0.0827    0.4203 C   0  0  0  0  0  0  0  0  0  0  0  0
   -0.6477   -0.2020   -0.4533 C   0  0  0  0  0  0  0  0  0  0  0  0
    0.6477    0.2020    0.2499 C   0  0  0  0  0  0  0  0  0  0  0  0
   -0.9492    1.5111   -1.3870 H   0  0  0  0  0  0  0  0  0  0  0  0
   -0.7434   -0.0214   -2.1895 H   0  0  0  0  0  0  0  0  0  0  0  0
   -1.1794   -1.7486    0.4347 H   0  0  0  0  0  0  0  0  0  0  0  0
   -1.7238   -2.0454   -1.0683 H   0  0  0  0  0  0  0  0  0  0  0  0
   -2.9018    0.0493   -1.0981 H   0  0  0  0  0  0  0  0  0  0  0  0
    0.9641   -1.6496   -1.4476 H   0  0  0  0  0  0  0  0  0  0  0  0
    0.4414    2.1181    0.5913 H   0  0  0  0  0  0  0  0  0  0  0  0
   -2.3748    1.6817    0.7178 H   0  0  0  0  0  0  0  0  0  0  0  0
   -1.5321    0.4063    1.6176 H   0  0  0  0  0  0  0  0  0  0  0  0
   -3.2641    0.2696    1.2987 H   0  0  0  0  0  0  0  0  0  0  0  0
    3.1317   -1.9532   -0.3093 H   0  0  0  0  0  0  0  0  0  0  0  0
    2.6122    1.7971    1.7180 H   0  0  0  0  0  0  0  0  0  0  0  0
    3.9620   -0.2359    1.2757 H   0  0  0  0  0  0  0  0  0  0  0  0
    4.9824    0.3597   -0.1538 H   0  0  0  0  0  0  0  0  0  0  0  0
   -4.9824   -0.3596   -0.0497 H   0  0  0  0  0  0  0  0  0  0  0  0
    1.7945    0.4808   -1.5603 H   0  0  0  0  0  0  0  0  0  0  0  0
    1.9198   -1.1528   -0.8529 H   0  0  0  0  0  0  0  0  0  0  0  0
   -1.9198    1.1528    0.6495 H   0  0  0  0  0  0  0  0  0  0  0  0
   -1.7945   -0.4808    1.3569 H   0  0  0  0  0  0  0  0  0  0  0  0
   -0.7383    0.3416   -1.4022 H   0  0  0  0  0  0  0  0  0  0  0  0
   -0.6147   -1.2696   -0.7045 H   0  0  0  0  0  0  0  0  0  0  0  0
    0.7383   -0.3416    1.1988 H   0  0  0  0  0  0  0  0  0  0  0  0
    0.6147    1.2696    0.5011 H   0  0  0  0  0  0  0  0  0  0  0  0
  4  2  1  0
  3  1  1  0
  4  1  1  0
  5  3  2  0
  6  3  1  0
  4  7  1  0
  8  5  1  0
  9  6  2  0
 10  9  1  0
 10  8  2  0
 12 17  1  0
 13 11  2  0
 14 12  2  0
 15 12  1  0
 16 11  1  0
 17 20  1  0
 18 11  1  0
 19 18  1  0
 20 19  1  0
  1 21  1  0
  1 22  1  0
  2 23  1  0
  2 24  1  0
  4 25  1  6
  5 26  1  0
  6 27  1  0
  7 28  1  0
  7 29  1  0
  7 30  1  0
  8 31  1  0
  9 32  1  0
 10 33  1  0
 15 34  1  0
 16 35  1  0
 17 36  1  0
 17 37  1  0
 18 38  1  0
 18 39  1  0
 19 40  1  0
 19 41  1  0
 20 42  1  0
 20 43  1  0
M  END
$$$$
