
     RDKit          3D

 43 42  0  0  0  0  0  0  0  0999 V2000
   -0.5743   -1.0572    0.0330 C   0  0  0  0  0  0  0  0  0  0  0  0
   -1.8917    0.7150   -1.1245 N   0  0  0  0  0  0  0  0  0  0  0  0
    0.7609   -0.3476    0.0710 C   0  0  0  0  0  0  0  0  0  0  0  0
   -1.7814   -0.0971    0.0940 C   0  0  1  0  0  0  0  0  0  0  0  0
    1.2787    0.1310    1.2823 C   0  0  0  0  0  0  0  0  0  0  0  0
    1.4908   -0.1442   -1.1080 C   0  0  0  0  0  0  0  0  0  0  0  0
   -3.0791   -0.8838    0.2711 C   0  0  0  0  0  0  0  0  0  0  0  0
    2.5046    0.7978    1.3128 C   0  0  0  0  0  0  0  0  0  0  0  0
    2.7161    0.5231   -1.0755 C   0  0  0  0  0  0  0  0  0  0  0  0
    3.2227    0.9936    0.1345 C   0  0  0  0  0  0  0  0  0  0  0  0
    2.6284    0.6308   -0.0922 C   0  0  0  0  0  0  0  0  0  0  0  0
   -2.8875    0.3749   -0.2148 C   0  0  0  0  0  0  0  0  0  0  0  0
    2.2870    1.6518    0.4790 O   0  0  0  0  0  0  0  0  0  0  0  0
   -2.8383    0.6727   -1.3955 O   0  0  0  0  0  0  0  0  0  0  0  0
   -4.0402    0.4920    0.4737 O   0  0  0  0  0  0  0  0  0  0  0  0
    3.6697    0.6391   -0.9474 O   0  0  0  0  0  0  0  0  0  0  0  0
   -1.7735   -0.1582    0.6448 C   0  0  0  0  0  0  0  0  0  0  0  0
    2.0316   -0.7441    0.0526 C   0  0  0  0  0  0  0  0  0  0  0  0
    0.6832   -0.7312    0.7726 C   0  0  0  0  0  0  0  0  0  0  0  0
   -0.4408   -0.1684   -0.1022 C   0  0  0  0  0  0  0  0  0  0  0  0
   -0.6347   -1.6876   -0.8644 H   0  0  0  0  0  0  0  0  0  0  0  0
   -0.6117   -1.7533    0.8818 H   0  0  0  0  0  0  0  0  0  0  0  0
   -2.6434    1.3942   -1.0133 H   0  0  0  0  0  0  0  0  0  0  0  0
   -1.0347    1.2603   -1.2336 H   0  0  0  0  0  0  0  0  0  0  0  0
   -1.6689    0.5806    0.9492 H   0  0  0  0  0  0  0  0  0  0  0  0
    0.7305   -0.0150    2.2101 H   0  0  0  0  0  0  0  0  0  0  0  0
    1.1040   -0.5026   -2.0598 H   0  0  0  0  0  0  0  0  0  0  0  0
   -3.9419   -0.2116    0.3379 H   0  0  0  0  0  0  0  0  0  0  0  0
   -3.2495   -1.5719   -0.5646 H   0  0  0  0  0  0  0  0  0  0  0  0
   -3.0498   -1.4746    1.1931 H   0  0  0  0  0  0  0  0  0  0  0  0
    2.9002    1.1636    2.2566 H   0  0  0  0  0  0  0  0  0  0  0  0
    3.2749    0.6752   -1.9951 H   0  0  0  0  0  0  0  0  0  0  0  0
    4.1775    1.5119    0.1591 H   0  0  0  0  0  0  0  0  0  0  0  0
   -4.6752    0.8421   -0.1858 H   0  0  0  0  0  0  0  0  0  0  0  0
    3.9693    1.5724   -0.9482 H   0  0  0  0  0  0  0  0  0  0  0  0
   -2.0386   -1.1751    0.9540 H   0  0  0  0  0  0  0  0  0  0  0  0
   -1.6919    0.4763    1.5344 H   0  0  0  0  0  0  0  0  0  0  0  0
    2.7415   -1.3468    0.6299 H   0  0  0  0  0  0  0  0  0  0  0  0
    1.9203   -1.1927   -0.9407 H   0  0  0  0  0  0  0  0  0  0  0  0
    0.7560   -0.1538    1.7023 H   0  0  0  0  0  0  0  0  0  0  0  0
    0.4299   -1.7605    1.0548 H   0  0  0  0  0  0  0  0  0  0  0  0
   -0.5329   -0.7721   -1.0138 H   0  0  0  0  0  0  0  0  0  0  0  0
   -0.1979    0.8509   -0.4253 H   0  0  0  0  0  0  0  0  0  0  0  0
  4  2  1  0
  3  1  1  0
  4  1  1  0
  5  3  2  0
  6  3  1  0
  4  7  1  0
  8  5  1  0
  9  6  2  0
 10  9  1  0
 10  8  2  0
 12 17  1  0
 13 11  2  0
 14 12  2  0
 15 12  1  0
 16 11  1  0
 17 20  1  0
 18 11  1  0
 19 18  1  0
 20 19  1  0
  1 21  1  0
  1 22  1  0
  2 23  1  0
  2 24  1  0
  4 25  1  1
  5 26  1  0
  6 27  1  0
  7 28  1  0
  7 29  1  0
  7 30  1  0
  8 31  1  0
  9 32  1  0
 10 33  1  0
 15 34  1  0
 16 35  1  0
 17 36  1  0
 17 37  1  0
 18 38  1  0
 18 39  1  0
 19 40  1  0
 19 41  1  0
 20 42  1  0
 20 43  1  0
M  END
$$$$
