
     RDKit          3D

 43 42  0  0  0  0  0  0  0  0999 V2000
   -0.7820   -1.0081    0.2778 C   0  0  0  0  0  0  0  0  0  0  0  0
   -3.0533   -0.8648   -0.6655 N   0  0  0  0  0  0  0  0  0  0  0  0
    0.6302   -0.4692    0.2796 C   0  0  0  0  0  0  0  0  0  0  0  0
   -1.7650   -0.1651   -0.5609 C   0  0  1  0  0  0  0  0  0  0  0  0
    1.4457   -0.6063   -0.8524 C   0  0  0  0  0  0  0  0  0  0  0  0
    1.1425    0.1805    1.4106 C   0  0  0  0  0  0  0  0  0  0  0  0
   -2.0132    1.2148    0.0495 C   0  0  0  0  0  0  0  0  0  0  0  0
    2.7468   -0.1011   -0.8529 C   0  0  0  0  0  0  0  0  0  0  0  0
    2.4438    0.6853    1.4081 C   0  0  0  0  0  0  0  0  0  0  0  0
    3.2452    0.5449    0.2768 C   0  0  0  0  0  0  0  0  0  0  0  0
    2.7602   -0.0683   -0.1359 C   0  0  0  0  0  0  0  0  0  0  0  0
   -2.7602    0.0683    0.2447 C   0  0  0  0  0  0  0  0  0  0  0  0
    2.6864    0.5894   -1.1593 O   0  0  0  0  0  0  0  0  0  0  0  0
   -2.6864   -0.5894    1.2681 O   0  0  0  0  0  0  0  0  0  0  0  0
   -3.8718    0.7773   -0.0345 O   0  0  0  0  0  0  0  0  0  0  0  0
    3.8718   -0.7773    0.1432 O   0  0  0  0  0  0  0  0  0  0  0  0
   -1.7263    0.1955   -0.8425 C   0  0  0  0  0  0  0  0  0  0  0  0
    1.7263   -0.1955    0.9513 C   0  0  0  0  0  0  0  0  0  0  0  0
    0.3807    0.4226    0.5694 C   0  0  0  0  0  0  0  0  0  0  0  0
   -0.3807   -0.4226   -0.4606 C   0  0  0  0  0  0  0  0  0  0  0  0
   -0.7436   -2.0348   -0.1122 H   0  0  0  0  0  0  0  0  0  0  0  0
   -1.1475   -1.0993    1.3095 H   0  0  0  0  0  0  0  0  0  0  0  0
   -2.9210   -1.7534   -1.1472 H   0  0  0  0  0  0  0  0  0  0  0  0
   -3.6906   -0.3189   -1.2448 H   0  0  0  0  0  0  0  0  0  0  0  0
   -1.3703   -0.0319   -1.5753 H   0  0  0  0  0  0  0  0  0  0  0  0
    1.0725   -1.1111   -1.7405 H   0  0  0  0  0  0  0  0  0  0  0  0
    0.5291    0.2999    2.3010 H   0  0  0  0  0  0  0  0  0  0  0  0
   -2.3913    1.1383    1.0752 H   0  0  0  0  0  0  0  0  0  0  0  0
   -1.0941    1.8092    0.0706 H   0  0  0  0  0  0  0  0  0  0  0  0
   -2.7465    1.7784   -0.5387 H   0  0  0  0  0  0  0  0  0  0  0  0
    3.3723   -0.2130   -1.7345 H   0  0  0  0  0  0  0  0  0  0  0  0
    2.8319    1.1882    2.2899 H   0  0  0  0  0  0  0  0  0  0  0  0
    4.2585    0.9376    0.2762 H   0  0  0  0  0  0  0  0  0  0  0  0
   -4.4623    0.6051    0.7286 H   0  0  0  0  0  0  0  0  0  0  0  0
    4.4623   -0.6051   -0.6198 H   0  0  0  0  0  0  0  0  0  0  0  0
   -2.1185   -0.3227   -1.7248 H   0  0  0  0  0  0  0  0  0  0  0  0
   -1.5957    1.2549   -1.0888 H   0  0  0  0  0  0  0  0  0  0  0  0
    1.5957   -1.2549    1.1976 H   0  0  0  0  0  0  0  0  0  0  0  0
    2.1185    0.3227    1.8336 H   0  0  0  0  0  0  0  0  0  0  0  0
    0.5284    1.4370    0.1793 H   0  0  0  0  0  0  0  0  0  0  0  0
   -0.2221    0.5169    1.4799 H   0  0  0  0  0  0  0  0  0  0  0  0
   -0.5284   -1.4370   -0.0706 H   0  0  0  0  0  0  0  0  0  0  0  0
    0.2221   -0.5169   -1.3712 H   0  0  0  0  0  0  0  0  0  0  0  0
  4  2  1  0
  3  1  1  0
  4  1  1  0
  5  3  2  0
  6  3  1  0
  4  7  1  0
  8  5  1  0
  9  6  2  0
 10  9  1  0
 10  8  2  0
 12 17  1  0
 13 11  2  0
 14 12  2  0
 15 12  1  0
 16 11  1  0
 17 20  1  0
 18 11  1  0
 19 18  1  0
 20 19  1  0
  1 21  1  0
  1 22  1  0
  2 23  1  0
  2 24  1  0
  4 25  1  6
  5 26  1  0
  6 27  1  0
  7 28  1  0
  7 29  1  0
  7 30  1  0
  8 31  1  0
  9 32  1  0
 10 33  1  0
 15 34  1  0
 16 35  1  0
 17 36  1  0
 17 37  1  0
 18 38  1  0
 18 39  1  0
 19 40  1  0
 19 41  1  0
 20 42  1  0
 20 43  1  0
M  END
$$$$
