
     RDKit          3D

 69 68  0  0  0  0  0  0  0  0999 V2000
   -0.0352    0.3962    0.0000 O   0  0  0  0  0  0  0  0  0  0  0  0
   -3.6666   -1.4155    0.9098 C   0  0  0  0  0  0  0  0  0  0  0  0
   -2.1734    0.4469    0.1027 C   0  0  0  0  0  0  0  0  0  0  0  0
   -3.5745   -0.1443    0.0365 C   0  0  1  0  0  0  0  0  0  0  0  0
   -1.0802   -0.1733   -0.5220 C   0  0  0  0  0  0  0  0  0  0  0  0
   -3.8750   -1.2013    2.1428 O   0  0  0  0  0  0  0  0  0  0  0  0
   -3.5657   -2.5242    0.3068 O   0  0  0  0  0  0  0  0  0  0  0  0
    0.1938    0.3957   -0.4511 C   0  0  0  0  0  0  0  0  0  0  0  0
    1.2040   -0.2519   -1.1268 O   0  0  0  0  0  0  0  0  0  0  0  0
    2.4185   -0.3634   -0.4934 C   0  0  0  0  0  0  0  0  0  0  0  0
   -1.9531    1.6411    0.8087 C   0  0  0  0  0  0  0  0  0  0  0  0
   -0.6821    2.2196    0.8616 C   0  0  0  0  0  0  0  0  0  0  0  0
    0.3918    1.6064    0.2192 C   0  0  0  0  0  0  0  0  0  0  0  0
   -4.0300   -0.3759   -1.4040 C   0  0  0  0  0  0  0  0  0  0  0  0
    3.5545   -0.0100   -1.2240 C   0  0  0  0  0  0  0  0  0  0  0  0
    2.5411   -0.8716    0.8019 C   0  0  0  0  0  0  0  0  0  0  0  0
    3.8061   -0.9865    1.3806 C   0  0  0  0  0  0  0  0  0  0  0  0
    4.8187   -0.1279   -0.6434 C   0  0  0  0  0  0  0  0  0  0  0  0
    4.9413   -0.6094    0.6601 C   0  0  0  0  0  0  0  0  0  0  0  0
   -3.6557    1.3868    1.3243 C   0  0  0  0  0  0  0  0  0  0  0  0
   -2.2283   -0.0599   -0.1850 C   0  0  0  0  0  0  0  0  0  0  0  0
   -3.5196    0.0102    0.6226 C   0  0  1  0  0  0  0  0  0  0  0  0
   -1.0128   -0.4937    0.3625 C   0  0  0  0  0  0  0  0  0  0  0  0
   -4.0752    2.3276    0.5796 O   0  0  0  0  0  0  0  0  0  0  0  0
   -3.3916    1.4198    2.5619 O   0  0  0  0  0  0  0  0  0  0  0  0
    0.1414   -0.5625   -0.4259 C   0  0  0  0  0  0  0  0  0  0  0  0
    1.2810   -1.0365    0.1882 O   0  0  0  0  0  0  0  0  0  0  0  0
    2.4828   -0.4379   -0.1232 C   0  0  0  0  0  0  0  0  0  0  0  0
   -2.2470    0.3327   -1.5334 C   0  0  0  0  0  0  0  0  0  0  0  0
   -1.1017    0.2449   -2.3276 C   0  0  0  0  0  0  0  0  0  0  0  0
    0.0898   -0.2230   -1.7809 C   0  0  0  0  0  0  0  0  0  0  0  0
   -3.6983   -1.1625    1.5933 C   0  0  0  0  0  0  0  0  0  0  0  0
    3.5846   -1.2796   -0.2934 C   0  0  0  0  0  0  0  0  0  0  0  0
    2.6424    0.9461   -0.2067 C   0  0  0  0  0  0  0  0  0  0  0  0
    4.8363   -0.7422   -0.5984 C   0  0  0  0  0  0  0  0  0  0  0  0
    3.8935    1.4818   -0.5157 C   0  0  0  0  0  0  0  0  0  0  0  0
    4.9881    0.6383   -0.7150 C   0  0  0  0  0  0  0  0  0  0  0  0
    0.0000    0.0000    0.0000 Ca  0  0  0  0  0 15  0  0  0  0  0  0
   -0.0368    0.3960    0.0000 O   0  0  0  0  0  0  0  0  0  0  0  0
   -0.7432   -0.2654    0.0000 H   0  0  0  0  0  0  0  0  0  0  0  0
    0.7783   -0.1308    0.0000 H   0  0  0  0  0  0  0  0  0  0  0  0
   -4.2851    0.5775    0.4673 H   0  0  0  0  0  0  0  0  0  0  0  0
   -1.2233   -1.1146   -1.0499 H   0  0  0  0  0  0  0  0  0  0  0  0
   -2.7811    2.1176    1.3331 H   0  0  0  0  0  0  0  0  0  0  0  0
   -0.5343    3.1456    1.4091 H   0  0  0  0  0  0  0  0  0  0  0  0
    1.3733    2.0706    0.2515 H   0  0  0  0  0  0  0  0  0  0  0  0
   -3.4148   -1.1187   -1.9241 H   0  0  0  0  0  0  0  0  0  0  0  0
   -3.9869    0.5544   -1.9834 H   0  0  0  0  0  0  0  0  0  0  0  0
   -5.0646   -0.7369   -1.4238 H   0  0  0  0  0  0  0  0  0  0  0  0
    3.4473    0.3581   -2.2390 H   0  0  0  0  0  0  0  0  0  0  0  0
    1.6537   -1.1801    1.3537 H   0  0  0  0  0  0  0  0  0  0  0  0
    3.9085   -1.3766    2.3888 H   0  0  0  0  0  0  0  0  0  0  0  0
    5.7140    0.1516   -1.2041 H   0  0  0  0  0  0  0  0  0  0  0  0
    5.9242   -0.7026    1.1078 H   0  0  0  0  0  0  0  0  0  0  0  0
   -4.3609   -0.0666   -0.0914 H   0  0  0  0  0  0  0  0  0  0  0  0
   -0.9554   -0.7626    1.4136 H   0  0  0  0  0  0  0  0  0  0  0  0
   -3.1695    0.7212   -1.9613 H   0  0  0  0  0  0  0  0  0  0  0  0
   -1.1469    0.5495   -3.3684 H   0  0  0  0  0  0  0  0  0  0  0  0
    0.9714   -0.3029   -2.4091 H   0  0  0  0  0  0  0  0  0  0  0  0
   -4.6940   -1.1292    2.0508 H   0  0  0  0  0  0  0  0  0  0  0  0
   -2.9714   -1.1455    2.4121 H   0  0  0  0  0  0  0  0  0  0  0  0
   -3.6019   -2.1218    1.0785 H   0  0  0  0  0  0  0  0  0  0  0  0
    3.4629   -2.3544   -0.1910 H   0  0  0  0  0  0  0  0  0  0  0  0
    1.7957    1.6063   -0.0399 H   0  0  0  0  0  0  0  0  0  0  0  0
    5.6893   -1.3998   -0.7403 H   0  0  0  0  0  0  0  0  0  0  0  0
    4.0096    2.5575   -0.5979 H   0  0  0  0  0  0  0  0  0  0  0  0
    5.9615    1.0579   -0.9534 H   0  0  0  0  0  0  0  0  0  0  0  0
    0.7788   -0.1275    0.0000 H   0  0  0  0  0  0  0  0  0  0  0  0
   -0.7420   -0.2685    0.0000 H   0  0  0  0  0  0  0  0  0  0  0  0
  3  4  1  0
  4  2  1  0
  5  3  2  0
  6  2  1  0
  7  2  2  0
  8  5  1  0
  9  8  1  0
 10  9  1  0
 11  3  1  0
 12 11  2  0
 13  8  2  0
 14  4  1  0
 15 10  2  0
 16 10  1  0
 17 16  2  0
 18 15  1  0
 19 17  1  0
 12 13  1  0
 18 19  2  0
 21 22  1  0
 22 20  1  0
 23 21  2  0
 24 20  1  0
 25 20  2  0
 26 23  1  0
 27 26  1  0
 28 27  1  0
 29 21  1  0
 30 29  2  0
 31 26  2  0
 32 22  1  0
 33 28  2  0
 34 28  1  0
 35 33  1  0
 36 34  2  0
 37 36  1  0
 30 31  1  0
 35 37  2  0
  1 40  1  0
  1 41  1  0
  4 42  1  1
  5 43  1  0
 11 44  1  0
 12 45  1  0
 13 46  1  0
 14 47  1  0
 14 48  1  0
 14 49  1  0
 15 50  1  0
 16 51  1  0
 17 52  1  0
 18 53  1  0
 19 54  1  0
 22 55  1  6
 23 56  1  0
 29 57  1  0
 30 58  1  0
 31 59  1  0
 32 60  1  0
 32 61  1  0
 32 62  1  0
 33 63  1  0
 34 64  1  0
 35 65  1  0
 36 66  1  0
 37 67  1  0
 39 68  1  0
 39 69  1  0
M  CHG  3   6  -1  24  -1  38   2
M  END
$$$$
