
     RDKit          3D

 69 68  0  0  0  0  0  0  0  0999 V2000
   -0.0216    0.3971    0.0000 O   0  0  0  0  0  0  0  0  0  0  0  0
    3.3049    1.1339   -1.7104 C   0  0  0  0  0  0  0  0  0  0  0  0
    1.9794   -0.2352   -0.0760 C   0  0  0  0  0  0  0  0  0  0  0  0
    3.1908    0.6694   -0.2424 C   0  0  1  0  0  0  0  0  0  0  0  0
    0.8816    0.1968    0.6802 C   0  0  0  0  0  0  0  0  0  0  0  0
    2.6232    2.1618   -1.9984 O   0  0  0  0  0  0  0  0  0  0  0  0
    4.0743    0.4574   -2.4538 O   0  0  0  0  0  0  0  0  0  0  0  0
   -0.2541   -0.6071    0.7910 C   0  0  0  0  0  0  0  0  0  0  0  0
   -1.3277   -0.1353    1.5102 O   0  0  0  0  0  0  0  0  0  0  0  0
   -2.4455    0.2263    0.7861 C   0  0  0  0  0  0  0  0  0  0  0  0
    1.9162   -1.4957   -0.6931 C   0  0  0  0  0  0  0  0  0  0  0  0
    0.7925   -2.3130   -0.5451 C   0  0  0  0  0  0  0  0  0  0  0  0
   -0.2942   -1.8726    0.2055 C   0  0  0  0  0  0  0  0  0  0  0  0
    4.4687    0.0089    0.2715 C   0  0  0  0  0  0  0  0  0  0  0  0
   -2.4099    0.7126   -0.5243 C   0  0  0  0  0  0  0  0  0  0  0  0
   -3.6665    0.1357    1.4573 C   0  0  0  0  0  0  0  0  0  0  0  0
   -4.8503    0.5005    0.8140 C   0  0  0  0  0  0  0  0  0  0  0  0
   -3.5948    1.0782   -1.1661 C   0  0  0  0  0  0  0  0  0  0  0  0
   -4.8140    0.9696   -0.4987 C   0  0  0  0  0  0  0  0  0  0  0  0
    3.8241    0.2734    1.9508 C   0  0  0  0  0  0  0  0  0  0  0  0
    2.1929   -0.1716    0.0469 C   0  0  0  0  0  0  0  0  0  0  0  0
    3.3600    0.6753    0.5324 C   0  0  1  0  0  0  0  0  0  0  0  0
    1.0256   -0.3189    0.8116 C   0  0  0  0  0  0  0  0  0  0  0  0
    3.3403    0.9415    2.9119 O   0  0  0  0  0  0  0  0  0  0  0  0
    4.6698   -0.6694    1.9893 O   0  0  0  0  0  0  0  0  0  0  0  0
   -0.0614   -1.0325    0.3048 C   0  0  0  0  0  0  0  0  0  0  0  0
   -1.1883   -1.1484    1.0881 O   0  0  0  0  0  0  0  0  0  0  0  0
   -2.3417   -0.6062    0.5640 C   0  0  0  0  0  0  0  0  0  0  0  0
    2.2502   -0.7796   -1.2181 C   0  0  0  0  0  0  0  0  0  0  0  0
    1.1705   -1.5191   -1.7086 C   0  0  0  0  0  0  0  0  0  0  0  0
    0.0120   -1.6483   -0.9461 C   0  0  0  0  0  0  0  0  0  0  0  0
    3.0183    2.1630    0.4366 C   0  0  0  0  0  0  0  0  0  0  0  0
   -3.5019   -1.3796    0.6367 C   0  0  0  0  0  0  0  0  0  0  0  0
   -2.3899    0.6844    0.0276 C   0  0  0  0  0  0  0  0  0  0  0  0
   -4.7047   -0.8758    0.1387 C   0  0  0  0  0  0  0  0  0  0  0  0
   -3.5932    1.1848   -0.4710 C   0  0  0  0  0  0  0  0  0  0  0  0
   -4.7486    0.4023   -0.4221 C   0  0  0  0  0  0  0  0  0  0  0  0
    0.0000    0.0000    0.0000 Ca  0  0  0  0  0 15  0  0  0  0  0  0
    0.0004    0.3978    0.0000 O   0  0  0  0  0  0  0  0  0  0  0  0
   -0.7516   -0.2400    0.0000 H   0  0  0  0  0  0  0  0  0  0  0  0
    0.7733   -0.1571    0.0000 H   0  0  0  0  0  0  0  0  0  0  0  0
    3.0416    1.5723    0.3649 H   0  0  0  0  0  0  0  0  0  0  0  0
    0.8935    1.1789    1.1457 H   0  0  0  0  0  0  0  0  0  0  0  0
    2.7433   -1.8307   -1.3179 H   0  0  0  0  0  0  0  0  0  0  0  0
    0.7646   -3.2812   -1.0370 H   0  0  0  0  0  0  0  0  0  0  0  0
   -1.1743   -2.4966    0.3107 H   0  0  0  0  0  0  0  0  0  0  0  0
    4.3768   -0.2431    1.3347 H   0  0  0  0  0  0  0  0  0  0  0  0
    5.3226    0.6863    0.1569 H   0  0  0  0  0  0  0  0  0  0  0  0
    4.7101   -0.9173   -0.2643 H   0  0  0  0  0  0  0  0  0  0  0  0
   -1.4676    0.8220   -1.0565 H   0  0  0  0  0  0  0  0  0  0  0  0
   -3.6951   -0.2226    2.4813 H   0  0  0  0  0  0  0  0  0  0  0  0
   -5.7980    0.4253    1.3375 H   0  0  0  0  0  0  0  0  0  0  0  0
   -3.5580    1.4558   -2.1853 H   0  0  0  0  0  0  0  0  0  0  0  0
   -5.7343    1.2585   -0.9995 H   0  0  0  0  0  0  0  0  0  0  0  0
    4.2202    0.5013   -0.1287 H   0  0  0  0  0  0  0  0  0  0  0  0
    0.9605    0.1364    1.7998 H   0  0  0  0  0  0  0  0  0  0  0  0
    3.1486   -0.6798   -1.8224 H   0  0  0  0  0  0  0  0  0  0  0  0
    1.2370   -1.9888   -2.6840 H   0  0  0  0  0  0  0  0  0  0  0  0
   -0.8279   -2.2224   -1.3213 H   0  0  0  0  0  0  0  0  0  0  0  0
    2.8121    2.4498   -0.6016 H   0  0  0  0  0  0  0  0  0  0  0  0
    2.1342    2.4264    1.0306 H   0  0  0  0  0  0  0  0  0  0  0  0
    3.8526    2.7738    0.7973 H   0  0  0  0  0  0  0  0  0  0  0  0
   -3.4616   -2.3724    1.0758 H   0  0  0  0  0  0  0  0  0  0  0  0
   -1.4960    1.3053    0.0044 H   0  0  0  0  0  0  0  0  0  0  0  0
   -5.6054   -1.4827    0.1841 H   0  0  0  0  0  0  0  0  0  0  0  0
   -3.6245    2.1843   -0.8954 H   0  0  0  0  0  0  0  0  0  0  0  0
   -5.6838    0.7936   -0.8126 H   0  0  0  0  0  0  0  0  0  0  0  0
    0.7633   -0.1996    0.0000 H   0  0  0  0  0  0  0  0  0  0  0  0
   -0.7637   -0.1981    0.0000 H   0  0  0  0  0  0  0  0  0  0  0  0
  3  4  1  0
  4  2  1  0
  5  3  2  0
  6  2  1  0
  7  2  2  0
  8  5  1  0
  9  8  1  0
 10  9  1  0
 11  3  1  0
 12 11  2  0
 13  8  2  0
 14  4  1  0
 15 10  2  0
 16 10  1  0
 17 16  2  0
 18 15  1  0
 19 17  1  0
 12 13  1  0
 18 19  2  0
 21 22  1  0
 22 20  1  0
 23 21  2  0
 24 20  1  0
 25 20  2  0
 26 23  1  0
 27 26  1  0
 28 27  1  0
 29 21  1  0
 30 29  2  0
 31 26  2  0
 32 22  1  0
 33 28  2  0
 34 28  1  0
 35 33  1  0
 36 34  2  0
 37 36  1  0
 30 31  1  0
 35 37  2  0
  1 40  1  0
  1 41  1  0
  4 42  1  1
  5 43  1  0
 11 44  1  0
 12 45  1  0
 13 46  1  0
 14 47  1  0
 14 48  1  0
 14 49  1  0
 15 50  1  0
 16 51  1  0
 17 52  1  0
 18 53  1  0
 19 54  1  0
 22 55  1  6
 23 56  1  0
 29 57  1  0
 30 58  1  0
 31 59  1  0
 32 60  1  0
 32 61  1  0
 32 62  1  0
 33 63  1  0
 34 64  1  0
 35 65  1  0
 36 66  1  0
 37 67  1  0
 39 68  1  0
 39 69  1  0
M  CHG  3   6  -1  24  -1  38   2
M  END
$$$$
