
     RDKit          3D

 69 68  0  0  0  0  0  0  0  0999 V2000
    0.0024    0.3979    0.0000 O   0  0  0  0  0  0  0  0  0  0  0  0
   -3.2621    1.5537    0.1833 C   0  0  0  0  0  0  0  0  0  0  0  0
   -1.9402   -0.6001    0.1306 C   0  0  0  0  0  0  0  0  0  0  0  0
   -2.7628    0.3400    0.9991 C   0  0  1  0  0  0  0  0  0  0  0  0
   -0.7025   -0.2079   -0.4051 C   0  0  0  0  0  0  0  0  0  0  0  0
   -4.3710    1.3794   -0.4059 O   0  0  0  0  0  0  0  0  0  0  0  0
   -2.5382    2.5916    0.2165 O   0  0  0  0  0  0  0  0  0  0  0  0
    0.0536   -1.1006   -1.1723 C   0  0  0  0  0  0  0  0  0  0  0  0
    1.2645   -0.7702   -1.7415 O   0  0  0  0  0  0  0  0  0  0  0  0
    2.1484   -0.0539   -0.9684 C   0  0  0  0  0  0  0  0  0  0  0  0
   -2.4166   -1.8896   -0.1519 C   0  0  0  0  0  0  0  0  0  0  0  0
   -1.6749   -2.7688   -0.9433 C   0  0  0  0  0  0  0  0  0  0  0  0
   -0.4402   -2.3733   -1.4547 C   0  0  0  0  0  0  0  0  0  0  0  0
   -2.0022    0.7603    2.2568 C   0  0  0  0  0  0  0  0  0  0  0  0
    2.5428   -0.4804    0.3031 C   0  0  0  0  0  0  0  0  0  0  0  0
    2.7031    1.0963   -1.5295 C   0  0  0  0  0  0  0  0  0  0  0  0
    3.6295    1.8449   -0.8037 C   0  0  0  0  0  0  0  0  0  0  0  0
    3.4699    0.2703    1.0268 C   0  0  0  0  0  0  0  0  0  0  0  0
    4.0107    1.4330    0.4744 C   0  0  0  0  0  0  0  0  0  0  0  0
    4.4385   -0.5229   -0.5028 C   0  0  0  0  0  0  0  0  0  0  0  0
    2.0016   -0.1862    0.1410 C   0  0  0  0  0  0  0  0  0  0  0  0
    3.0322   -0.0887   -0.9726 C   0  0  1  0  0  0  0  0  0  0  0  0
    0.7814   -0.8385   -0.0883 C   0  0  0  0  0  0  0  0  0  0  0  0
    5.2002    0.3983   -0.0825 O   0  0  0  0  0  0  0  0  0  0  0  0
    4.6824   -1.7621   -0.6170 O   0  0  0  0  0  0  0  0  0  0  0  0
   -0.1907   -0.8780    0.9130 C   0  0  0  0  0  0  0  0  0  0  0  0
   -1.3738   -1.5338    0.6807 O   0  0  0  0  0  0  0  0  0  0  0  0
   -2.4356   -0.7958    0.1987 C   0  0  0  0  0  0  0  0  0  0  0  0
    2.2217    0.4041    1.3967 C   0  0  0  0  0  0  0  0  0  0  0  0
    1.2559    0.3346    2.4040 C   0  0  0  0  0  0  0  0  0  0  0  0
    0.0467   -0.3130    2.1651 C   0  0  0  0  0  0  0  0  0  0  0  0
    3.0364    1.3152   -1.5765 C   0  0  0  0  0  0  0  0  0  0  0  0
   -3.6442   -1.4932    0.1024 C   0  0  0  0  0  0  0  0  0  0  0  0
   -2.3833    0.5446   -0.1956 C   0  0  0  0  0  0  0  0  0  0  0  0
   -4.7918   -0.8587   -0.3768 C   0  0  0  0  0  0  0  0  0  0  0  0
   -3.5313    1.1785   -0.6785 C   0  0  0  0  0  0  0  0  0  0  0  0
   -4.7340    0.4781   -0.7681 C   0  0  0  0  0  0  0  0  0  0  0  0
    0.0000    0.0000    0.0000 Ca  0  0  0  0  0 15  0  0  0  0  0  0
    0.0122    0.3976    0.0000 O   0  0  0  0  0  0  0  0  0  0  0  0
   -0.7646   -0.1944    0.0000 H   0  0  0  0  0  0  0  0  0  0  0  0
    0.7622   -0.2035    0.0000 H   0  0  0  0  0  0  0  0  0  0  0  0
   -3.6595   -0.1936    1.3450 H   0  0  0  0  0  0  0  0  0  0  0  0
   -0.3485    0.8071   -0.2331 H   0  0  0  0  0  0  0  0  0  0  0  0
   -3.3858   -2.2022    0.2302 H   0  0  0  0  0  0  0  0  0  0  0  0
   -2.0686   -3.7541   -1.1688 H   0  0  0  0  0  0  0  0  0  0  0  0
    0.1336   -3.0513   -2.0776 H   0  0  0  0  0  0  0  0  0  0  0  0
   -2.6175    1.4238    2.8749 H   0  0  0  0  0  0  0  0  0  0  0  0
   -1.0740    1.2958    2.0283 H   0  0  0  0  0  0  0  0  0  0  0  0
   -1.7374   -0.1143    2.8622 H   0  0  0  0  0  0  0  0  0  0  0  0
    2.1229   -1.3840    0.7326 H   0  0  0  0  0  0  0  0  0  0  0  0
    2.3937    1.4174   -2.5193 H   0  0  0  0  0  0  0  0  0  0  0  0
    4.0430    2.7544   -1.2297 H   0  0  0  0  0  0  0  0  0  0  0  0
    3.7636   -0.0475    2.0219 H   0  0  0  0  0  0  0  0  0  0  0  0
    4.7229    2.0240    1.0433 H   0  0  0  0  0  0  0  0  0  0  0  0
    2.7517   -0.7854   -1.7762 H   0  0  0  0  0  0  0  0  0  0  0  0
    0.5850   -1.3101   -1.0469 H   0  0  0  0  0  0  0  0  0  0  0  0
    3.1652    0.9118    1.5975 H   0  0  0  0  0  0  0  0  0  0  0  0
    1.4597    0.7824    3.3718 H   0  0  0  0  0  0  0  0  0  0  0  0
   -0.7032   -0.3772    2.9458 H   0  0  0  0  0  0  0  0  0  0  0  0
    3.7962    1.3983   -2.3614 H   0  0  0  0  0  0  0  0  0  0  0  0
    3.2453    2.0882   -0.8288 H   0  0  0  0  0  0  0  0  0  0  0  0
    2.0643    1.5478   -2.0252 H   0  0  0  0  0  0  0  0  0  0  0  0
   -3.6871   -2.5374    0.4019 H   0  0  0  0  0  0  0  0  0  0  0  0
   -1.4592    1.1143   -0.1423 H   0  0  0  0  0  0  0  0  0  0  0  0
   -5.7263   -1.4092   -0.4468 H   0  0  0  0  0  0  0  0  0  0  0  0
   -3.4803    2.2196   -0.9874 H   0  0  0  0  0  0  0  0  0  0  0  0
   -5.6234    0.9748   -1.1460 H   0  0  0  0  0  0  0  0  0  0  0  0
   -0.7693   -0.1754    0.0000 H   0  0  0  0  0  0  0  0  0  0  0  0
    0.7570   -0.2222    0.0000 H   0  0  0  0  0  0  0  0  0  0  0  0
  3  4  1  0
  4  2  1  0
  5  3  2  0
  6  2  1  0
  7  2  2  0
  8  5  1  0
  9  8  1  0
 10  9  1  0
 11  3  1  0
 12 11  2  0
 13  8  2  0
 14  4  1  0
 15 10  2  0
 16 10  1  0
 17 16  2  0
 18 15  1  0
 19 17  1  0
 12 13  1  0
 18 19  2  0
 21 22  1  0
 22 20  1  0
 23 21  2  0
 24 20  1  0
 25 20  2  0
 26 23  1  0
 27 26  1  0
 28 27  1  0
 29 21  1  0
 30 29  2  0
 31 26  2  0
 32 22  1  0
 33 28  2  0
 34 28  1  0
 35 33  1  0
 36 34  2  0
 37 36  1  0
 30 31  1  0
 35 37  2  0
  1 40  1  0
  1 41  1  0
  4 42  1  1
  5 43  1  0
 11 44  1  0
 12 45  1  0
 13 46  1  0
 14 47  1  0
 14 48  1  0
 14 49  1  0
 15 50  1  0
 16 51  1  0
 17 52  1  0
 18 53  1  0
 19 54  1  0
 22 55  1  6
 23 56  1  0
 29 57  1  0
 30 58  1  0
 31 59  1  0
 32 60  1  0
 32 61  1  0
 32 62  1  0
 33 63  1  0
 34 64  1  0
 35 65  1  0
 36 66  1  0
 37 67  1  0
 39 68  1  0
 39 69  1  0
M  CHG  3   6  -1  24  -1  38   2
M  END
$$$$
