
     RDKit          3D

 69 68  0  0  0  0  0  0  0  0999 V2000
   -0.0144    0.3979    0.0000 O   0  0  0  0  0  0  0  0  0  0  0  0
   -3.5447    0.3344   -2.2052 C   0  0  0  0  0  0  0  0  0  0  0  0
   -2.0034    0.0090   -0.2098 C   0  0  0  0  0  0  0  0  0  0  0  0
   -3.1052   -0.6049   -1.0592 C   0  0  1  0  0  0  0  0  0  0  0  0
   -0.8682   -0.7484    0.1146 C   0  0  0  0  0  0  0  0  0  0  0  0
   -2.8623    0.2343   -3.2691 O   0  0  0  0  0  0  0  0  0  0  0  0
   -4.5413    1.0798   -1.9718 O   0  0  0  0  0  0  0  0  0  0  0  0
    0.1491   -0.1942    0.8928 C   0  0  0  0  0  0  0  0  0  0  0  0
    1.2326   -0.9814    1.1998 O   0  0  0  0  0  0  0  0  0  0  0  0
    2.4586   -0.5935    0.7042 C   0  0  0  0  0  0  0  0  0  0  0  0
   -2.1043    1.3151    0.2936 C   0  0  0  0  0  0  0  0  0  0  0  0
   -1.0919    1.8580    1.0875 C   0  0  0  0  0  0  0  0  0  0  0  0
    0.0374    1.1022    1.3921 C   0  0  0  0  0  0  0  0  0  0  0  0
   -4.2755   -1.0495   -0.1862 C   0  0  0  0  0  0  0  0  0  0  0  0
    2.6422    0.0792   -0.5071 C   0  0  0  0  0  0  0  0  0  0  0  0
    3.5699   -0.9749    1.4556 C   0  0  0  0  0  0  0  0  0  0  0  0
    4.8578   -0.6497    1.0250 C   0  0  0  0  0  0  0  0  0  0  0  0
    3.9313    0.4044   -0.9388 C   0  0  0  0  0  0  0  0  0  0  0  0
    5.0376    0.0442   -0.1700 C   0  0  0  0  0  0  0  0  0  0  0  0
   -3.3919    0.9615   -1.2634 C   0  0  0  0  0  0  0  0  0  0  0  0
   -1.9003   -0.7332   -0.1385 C   0  0  0  0  0  0  0  0  0  0  0  0
   -2.9605    0.3344    0.0803 C   0  0  1  0  0  0  0  0  0  0  0  0
   -0.6005   -0.3984   -0.5462 C   0  0  0  0  0  0  0  0  0  0  0  0
   -4.3283    0.3491   -1.8598 O   0  0  0  0  0  0  0  0  0  0  0  0
   -2.7972    2.0261   -1.6052 O   0  0  0  0  0  0  0  0  0  0  0  0
    0.3647   -1.3943   -0.7123 C   0  0  0  0  0  0  0  0  0  0  0  0
    1.6479   -1.1155   -1.1240 O   0  0  0  0  0  0  0  0  0  0  0  0
    2.3360   -0.1455   -0.4332 C   0  0  0  0  0  0  0  0  0  0  0  0
   -2.2174   -2.0865    0.0572 C   0  0  0  0  0  0  0  0  0  0  0  0
   -1.2582   -3.0814   -0.1387 C   0  0  0  0  0  0  0  0  0  0  0  0
    0.0328   -2.7358   -0.5290 C   0  0  0  0  0  0  0  0  0  0  0  0
   -2.5081    1.3851    1.0951 C   0  0  0  0  0  0  0  0  0  0  0  0
    2.3523   -0.0702    0.9627 C   0  0  0  0  0  0  0  0  0  0  0  0
    3.0925    0.7468   -1.1897 C   0  0  0  0  0  0  0  0  0  0  0  0
    3.0945    0.9251    1.5970 C   0  0  0  0  0  0  0  0  0  0  0  0
    3.8326    1.7441   -0.5541 C   0  0  0  0  0  0  0  0  0  0  0  0
    3.8308    1.8356    0.8387 C   0  0  0  0  0  0  0  0  0  0  0  0
    0.0000    0.0000    0.0000 Ca  0  0  0  0  0 15  0  0  0  0  0  0
   -0.0098    0.3980    0.0000 O   0  0  0  0  0  0  0  0  0  0  0  0
    0.7698   -0.1713    0.0000 H   0  0  0  0  0  0  0  0  0  0  0  0
   -0.7554   -0.2266    0.0000 H   0  0  0  0  0  0  0  0  0  0  0  0
   -2.7088   -1.5044   -1.5501 H   0  0  0  0  0  0  0  0  0  0  0  0
   -0.7703   -1.7647   -0.2539 H   0  0  0  0  0  0  0  0  0  0  0  0
   -2.9834    1.9163    0.0615 H   0  0  0  0  0  0  0  0  0  0  0  0
   -1.1906    2.8722    1.4622 H   0  0  0  0  0  0  0  0  0  0  0  0
    0.8226    1.5213    2.0118 H   0  0  0  0  0  0  0  0  0  0  0  0
   -4.6949   -0.2210    0.4000 H   0  0  0  0  0  0  0  0  0  0  0  0
   -5.0810   -1.4637   -0.8033 H   0  0  0  0  0  0  0  0  0  0  0  0
   -3.9597   -1.8260    0.5208 H   0  0  0  0  0  0  0  0  0  0  0  0
    1.7939    0.3568   -1.1254 H   0  0  0  0  0  0  0  0  0  0  0  0
    3.4307   -1.5207    2.3841 H   0  0  0  0  0  0  0  0  0  0  0  0
    5.7194   -0.9382    1.6217 H   0  0  0  0  0  0  0  0  0  0  0  0
    4.0629    0.9429   -1.8714 H   0  0  0  0  0  0  0  0  0  0  0  0
    6.0396    0.2980   -0.5060 H   0  0  0  0  0  0  0  0  0  0  0  0
   -3.8542   -0.1414    0.5073 H   0  0  0  0  0  0  0  0  0  0  0  0
   -0.3545    0.6423   -0.7497 H   0  0  0  0  0  0  0  0  0  0  0  0
   -3.2293   -2.3675    0.3413 H   0  0  0  0  0  0  0  0  0  0  0  0
   -1.5268   -4.1233    0.0007 H   0  0  0  0  0  0  0  0  0  0  0  0
    0.7779   -3.5057   -0.6946 H   0  0  0  0  0  0  0  0  0  0  0  0
   -1.6311    1.9504    0.7563 H   0  0  0  0  0  0  0  0  0  0  0  0
   -2.2472    0.9165    2.0518 H   0  0  0  0  0  0  0  0  0  0  0  0
   -3.3102    2.1104    1.2799 H   0  0  0  0  0  0  0  0  0  0  0  0
    1.7819   -0.7742    1.5595 H   0  0  0  0  0  0  0  0  0  0  0  0
    3.0872    0.6767   -2.2739 H   0  0  0  0  0  0  0  0  0  0  0  0
    3.0892    0.9952    2.6817 H   0  0  0  0  0  0  0  0  0  0  0  0
    4.3997    2.4545   -1.1465 H   0  0  0  0  0  0  0  0  0  0  0  0
    4.3956    2.6191    1.3345 H   0  0  0  0  0  0  0  0  0  0  0  0
   -0.7580   -0.2178    0.0000 H   0  0  0  0  0  0  0  0  0  0  0  0
    0.7678   -0.1802    0.0000 H   0  0  0  0  0  0  0  0  0  0  0  0
  3  4  1  0
  4  2  1  0
  5  3  2  0
  6  2  1  0
  7  2  2  0
  8  5  1  0
  9  8  1  0
 10  9  1  0
 11  3  1  0
 12 11  2  0
 13  8  2  0
 14  4  1  0
 15 10  2  0
 16 10  1  0
 17 16  2  0
 18 15  1  0
 19 17  1  0
 12 13  1  0
 18 19  2  0
 21 22  1  0
 22 20  1  0
 23 21  2  0
 24 20  1  0
 25 20  2  0
 26 23  1  0
 27 26  1  0
 28 27  1  0
 29 21  1  0
 30 29  2  0
 31 26  2  0
 32 22  1  0
 33 28  2  0
 34 28  1  0
 35 33  1  0
 36 34  2  0
 37 36  1  0
 30 31  1  0
 35 37  2  0
  1 40  1  0
  1 41  1  0
  4 42  1  6
  5 43  1  0
 11 44  1  0
 12 45  1  0
 13 46  1  0
 14 47  1  0
 14 48  1  0
 14 49  1  0
 15 50  1  0
 16 51  1  0
 17 52  1  0
 18 53  1  0
 19 54  1  0
 22 55  1  1
 23 56  1  0
 29 57  1  0
 30 58  1  0
 31 59  1  0
 32 60  1  0
 32 61  1  0
 32 62  1  0
 33 63  1  0
 34 64  1  0
 35 65  1  0
 36 66  1  0
 37 67  1  0
 39 68  1  0
 39 69  1  0
M  CHG  3   6  -1  24  -1  38   2
M  END
$$$$
