
     RDKit          3D

 69 68  0  0  0  0  0  0  0  0999 V2000
   -0.0102    0.3976    0.0000 O   0  0  0  0  0  0  0  0  0  0  0  0
    2.6306    0.0022    2.6952 C   0  0  0  0  0  0  0  0  0  0  0  0
    2.0630   -0.5775    0.3059 C   0  0  0  0  0  0  0  0  0  0  0  0
    3.1904   -0.2988    1.2867 C   0  0  1  0  0  0  0  0  0  0  0  0
    1.1049    0.4001   -0.0013 C   0  0  0  0  0  0  0  0  0  0  0  0
    2.4595    1.2219    2.9845 O   0  0  0  0  0  0  0  0  0  0  0  0
    2.4300   -1.0187    3.4189 O   0  0  0  0  0  0  0  0  0  0  0  0
    0.0646    0.1114   -0.8845 C   0  0  0  0  0  0  0  0  0  0  0  0
   -0.8519    1.1011   -1.1592 O   0  0  0  0  0  0  0  0  0  0  0  0
   -2.1550    0.8458   -0.7904 C   0  0  0  0  0  0  0  0  0  0  0  0
    1.9621   -1.8360   -0.3090 C   0  0  0  0  0  0  0  0  0  0  0  0
    0.9359   -2.1106   -1.2158 C   0  0  0  0  0  0  0  0  0  0  0  0
   -0.0126   -1.1338   -1.5100 C   0  0  0  0  0  0  0  0  0  0  0  0
    4.1165    0.8031    0.7768 C   0  0  0  0  0  0  0  0  0  0  0  0
   -2.5044    0.2421    0.4193 C   0  0  0  0  0  0  0  0  0  0  0  0
   -3.1507    1.2830   -1.6662 C   0  0  0  0  0  0  0  0  0  0  0  0
   -4.4943    1.0811   -1.3531 C   0  0  0  0  0  0  0  0  0  0  0  0
   -3.8501    0.0446    0.7326 C   0  0  0  0  0  0  0  0  0  0  0  0
   -4.8432    0.4586   -0.1547 C   0  0  0  0  0  0  0  0  0  0  0  0
   -3.0902    1.9447   -0.3921 C   0  0  0  0  0  0  0  0  0  0  0  0
   -2.1198   -0.3352    0.0874 C   0  0  0  0  0  0  0  0  0  0  0  0
   -3.3679    0.5303    0.1672 C   0  0  1  0  0  0  0  0  0  0  0  0
   -0.9479    0.0076    0.7791 C   0  0  0  0  0  0  0  0  0  0  0  0
   -2.8538    2.8506    0.4599 O   0  0  0  0  0  0  0  0  0  0  0  0
   -3.1560    2.0436   -1.6541 O   0  0  0  0  0  0  0  0  0  0  0  0
    0.1923   -0.7880    0.6654 C   0  0  0  0  0  0  0  0  0  0  0  0
    1.3228   -0.4169    1.3557 O   0  0  0  0  0  0  0  0  0  0  0  0
    2.4093   -0.0477    0.5900 C   0  0  0  0  0  0  0  0  0  0  0  0
   -2.1236   -1.5023   -0.6937 C   0  0  0  0  0  0  0  0  0  0  0  0
   -0.9878   -2.3114   -0.7802 C   0  0  0  0  0  0  0  0  0  0  0  0
    0.1726   -1.9581   -0.0950 C   0  0  0  0  0  0  0  0  0  0  0  0
   -3.9365    0.5539    1.5851 C   0  0  0  0  0  0  0  0  0  0  0  0
    3.6653   -0.4427    1.0542 C   0  0  0  0  0  0  0  0  0  0  0  0
    2.3051    0.7364   -0.5618 C   0  0  0  0  0  0  0  0  0  0  0  0
    4.8144   -0.0850    0.3481 C   0  0  0  0  0  0  0  0  0  0  0  0
    3.4555    1.0935   -1.2659 C   0  0  0  0  0  0  0  0  0  0  0  0
    4.7084    0.6797   -0.8140 C   0  0  0  0  0  0  0  0  0  0  0  0
    0.0000    0.0000    0.0000 Ca  0  0  0  0  0 15  0  0  0  0  0  0
   -0.0118    0.3976    0.0000 O   0  0  0  0  0  0  0  0  0  0  0  0
   -0.7582   -0.2184    0.0000 H   0  0  0  0  0  0  0  0  0  0  0  0
    0.7684   -0.1792    0.0000 H   0  0  0  0  0  0  0  0  0  0  0  0
    3.8054   -1.2037    1.3858 H   0  0  0  0  0  0  0  0  0  0  0  0
    1.1505    1.3757    0.4800 H   0  0  0  0  0  0  0  0  0  0  0  0
    2.6826   -2.6134   -0.0671 H   0  0  0  0  0  0  0  0  0  0  0  0
    0.8732   -3.0895   -1.6806 H   0  0  0  0  0  0  0  0  0  0  0  0
   -0.8121   -1.3450   -2.2113 H   0  0  0  0  0  0  0  0  0  0  0  0
    3.5949    1.7536    0.6260 H   0  0  0  0  0  0  0  0  0  0  0  0
    4.9304    0.9829    1.4880 H   0  0  0  0  0  0  0  0  0  0  0  0
    4.5654    0.5205   -0.1819 H   0  0  0  0  0  0  0  0  0  0  0  0
   -1.7389   -0.0668    1.1283 H   0  0  0  0  0  0  0  0  0  0  0  0
   -2.8732    1.7771   -2.5909 H   0  0  0  0  0  0  0  0  0  0  0  0
   -5.2674    1.4132   -2.0383 H   0  0  0  0  0  0  0  0  0  0  0  0
   -4.1165   -0.4261    1.6748 H   0  0  0  0  0  0  0  0  0  0  0  0
   -5.8897    0.3019    0.0926 H   0  0  0  0  0  0  0  0  0  0  0  0
   -4.1449    0.0947   -0.4769 H   0  0  0  0  0  0  0  0  0  0  0  0
   -0.9165    0.9171    1.3756 H   0  0  0  0  0  0  0  0  0  0  0  0
   -3.0164   -1.7748   -1.2515 H   0  0  0  0  0  0  0  0  0  0  0  0
   -1.0091   -3.2080   -1.3921 H   0  0  0  0  0  0  0  0  0  0  0  0
    1.0584   -2.5813   -0.1642 H   0  0  0  0  0  0  0  0  0  0  0  0
   -3.2346    0.9809    2.3113 H   0  0  0  0  0  0  0  0  0  0  0  0
   -4.1859   -0.4591    1.9233 H   0  0  0  0  0  0  0  0  0  0  0  0
   -4.8506    1.1553    1.6221 H   0  0  0  0  0  0  0  0  0  0  0  0
    3.7428   -1.0298    1.9647 H   0  0  0  0  0  0  0  0  0  0  0  0
    1.3356    1.0836   -0.9128 H   0  0  0  0  0  0  0  0  0  0  0  0
    5.7904   -0.3970    0.7066 H   0  0  0  0  0  0  0  0  0  0  0  0
    3.3677    1.7020   -2.1626 H   0  0  0  0  0  0  0  0  0  0  0  0
    5.6012    0.9636   -1.3643 H   0  0  0  0  0  0  0  0  0  0  0  0
    0.7691   -0.1761    0.0000 H   0  0  0  0  0  0  0  0  0  0  0  0
   -0.7573   -0.2215    0.0000 H   0  0  0  0  0  0  0  0  0  0  0  0
  3  4  1  0
  4  2  1  0
  5  3  2  0
  6  2  1  0
  7  2  2  0
  8  5  1  0
  9  8  1  0
 10  9  1  0
 11  3  1  0
 12 11  2  0
 13  8  2  0
 14  4  1  0
 15 10  2  0
 16 10  1  0
 17 16  2  0
 18 15  1  0
 19 17  1  0
 12 13  1  0
 18 19  2  0
 21 22  1  0
 22 20  1  0
 23 21  2  0
 24 20  1  0
 25 20  2  0
 26 23  1  0
 27 26  1  0
 28 27  1  0
 29 21  1  0
 30 29  2  0
 31 26  2  0
 32 22  1  0
 33 28  2  0
 34 28  1  0
 35 33  1  0
 36 34  2  0
 37 36  1  0
 30 31  1  0
 35 37  2  0
  1 40  1  0
  1 41  1  0
  4 42  1  1
  5 43  1  0
 11 44  1  0
 12 45  1  0
 13 46  1  0
 14 47  1  0
 14 48  1  0
 14 49  1  0
 15 50  1  0
 16 51  1  0
 17 52  1  0
 18 53  1  0
 19 54  1  0
 22 55  1  6
 23 56  1  0
 29 57  1  0
 30 58  1  0
 31 59  1  0
 32 60  1  0
 32 61  1  0
 32 62  1  0
 33 63  1  0
 34 64  1  0
 35 65  1  0
 36 66  1  0
 37 67  1  0
 39 68  1  0
 39 69  1  0
M  CHG  3   6  -1  24  -1  38   2
M  END
$$$$
