
     RDKit          3D

 69 68  0  0  0  0  0  0  0  0999 V2000
    0.0025    0.3978    0.0000 O   0  0  0  0  0  0  0  0  0  0  0  0
    3.6406    1.8705    0.4289 C   0  0  0  0  0  0  0  0  0  0  0  0
    2.0322   -0.0443    0.0769 C   0  0  0  0  0  0  0  0  0  0  0  0
    3.2169    0.4571    0.8876 C   0  0  1  0  0  0  0  0  0  0  0  0
    0.8331   -0.3837    0.7202 C   0  0  0  0  0  0  0  0  0  0  0  0
    3.0077    2.8210    0.9766 O   0  0  0  0  0  0  0  0  0  0  0  0
    4.5800    1.9300   -0.4175 O   0  0  0  0  0  0  0  0  0  0  0  0
   -0.2604   -0.8351   -0.0207 C   0  0  0  0  0  0  0  0  0  0  0  0
   -1.4068   -1.1647    0.6657 O   0  0  0  0  0  0  0  0  0  0  0  0
   -2.5643   -0.5183    0.2908 C   0  0  0  0  0  0  0  0  0  0  0  0
    2.1109   -0.1875   -1.3179 C   0  0  0  0  0  0  0  0  0  0  0  0
    1.0234   -0.6650   -2.0528 C   0  0  0  0  0  0  0  0  0  0  0  0
   -0.1634   -0.9982   -1.4038 C   0  0  0  0  0  0  0  0  0  0  0  0
    4.3729   -0.5413    0.8508 C   0  0  0  0  0  0  0  0  0  0  0  0
   -2.6158    0.8428   -0.0227 C   0  0  0  0  0  0  0  0  0  0  0  0
   -3.7350   -1.2783    0.2985 C   0  0  0  0  0  0  0  0  0  0  0  0
   -4.9531   -0.6884   -0.0415 C   0  0  0  0  0  0  0  0  0  0  0  0
   -3.8352    1.4308   -0.3631 C   0  0  0  0  0  0  0  0  0  0  0  0
   -5.0018    0.6653   -0.3758 C   0  0  0  0  0  0  0  0  0  0  0  0
   -3.5530   -2.0090   -0.4375 C   0  0  0  0  0  0  0  0  0  0  0  0
   -1.9831   -0.0265   -0.3453 C   0  0  0  0  0  0  0  0  0  0  0  0
   -3.2676   -0.6304    0.1996 C   0  0  1  0  0  0  0  0  0  0  0  0
   -0.9679    0.3756    0.5341 C   0  0  0  0  0  0  0  0  0  0  0  0
   -2.9533   -2.9839    0.1058 O   0  0  0  0  0  0  0  0  0  0  0  0
   -4.3639   -2.0223   -1.4094 O   0  0  0  0  0  0  0  0  0  0  0  0
    0.2171    0.9199    0.0370 C   0  0  0  0  0  0  0  0  0  0  0  0
    1.1825    1.3060    0.9374 O   0  0  0  0  0  0  0  0  0  0  0  0
    2.3877    0.6394    0.8812 C   0  0  0  0  0  0  0  0  0  0  0  0
   -1.7911    0.1582   -1.7243 C   0  0  0  0  0  0  0  0  0  0  0  0
   -0.6139    0.7281   -2.2152 C   0  0  0  0  0  0  0  0  0  0  0  0
    0.3920    1.1170   -1.3333 C   0  0  0  0  0  0  0  0  0  0  0  0
   -4.4354    0.3421    0.0429 C   0  0  0  0  0  0  0  0  0  0  0  0
    3.5222    1.3863    1.2041 C   0  0  0  0  0  0  0  0  0  0  0  0
    2.5105   -0.7214    0.5868 C   0  0  0  0  0  0  0  0  0  0  0  0
    4.7813    0.7838    1.2028 C   0  0  0  0  0  0  0  0  0  0  0  0
    3.7706   -1.3222    0.5854 C   0  0  0  0  0  0  0  0  0  0  0  0
    4.9049   -0.5698    0.8899 C   0  0  0  0  0  0  0  0  0  0  0  0
    0.0000    0.0000    0.0000 Ca  0  0  0  0  0 15  0  0  0  0  0  0
   -0.0290    0.3967    0.0000 O   0  0  0  0  0  0  0  0  0  0  0  0
    0.7622   -0.2036    0.0000 H   0  0  0  0  0  0  0  0  0  0  0  0
   -0.7646   -0.1942    0.0000 H   0  0  0  0  0  0  0  0  0  0  0  0
    2.9128    0.5517    1.9395 H   0  0  0  0  0  0  0  0  0  0  0  0
    0.7431   -0.2723    1.7972 H   0  0  0  0  0  0  0  0  0  0  0  0
    3.0285    0.0914   -1.8358 H   0  0  0  0  0  0  0  0  0  0  0  0
    1.1069   -0.7650   -3.1305 H   0  0  0  0  0  0  0  0  0  0  0  0
   -1.0068   -1.3708   -1.9751 H   0  0  0  0  0  0  0  0  0  0  0  0
    4.0630   -1.5121    1.2534 H   0  0  0  0  0  0  0  0  0  0  0  0
    5.2136   -0.1798    1.4536 H   0  0  0  0  0  0  0  0  0  0  0  0
    4.7462   -0.7108   -0.1648 H   0  0  0  0  0  0  0  0  0  0  0  0
   -1.7150    1.4530    0.0011 H   0  0  0  0  0  0  0  0  0  0  0  0
   -3.6931   -2.3303    0.5648 H   0  0  0  0  0  0  0  0  0  0  0  0
   -5.8620   -1.2828   -0.0420 H   0  0  0  0  0  0  0  0  0  0  0  0
   -3.8699    2.4883   -0.6121 H   0  0  0  0  0  0  0  0  0  0  0  0
   -5.9493    1.1269   -0.6395 H   0  0  0  0  0  0  0  0  0  0  0  0
   -3.1455   -0.8126    1.2765 H   0  0  0  0  0  0  0  0  0  0  0  0
   -1.0893    0.2407    1.6050 H   0  0  0  0  0  0  0  0  0  0  0  0
   -2.5658   -0.1592   -2.4224 H   0  0  0  0  0  0  0  0  0  0  0  0
   -0.4860    0.8570   -3.2854 H   0  0  0  0  0  0  0  0  0  0  0  0
    1.3069    1.5606   -1.7122 H   0  0  0  0  0  0  0  0  0  0  0  0
   -4.2450    1.2718    0.5898 H   0  0  0  0  0  0  0  0  0  0  0  0
   -5.3582   -0.0960    0.4365 H   0  0  0  0  0  0  0  0  0  0  0  0
   -4.6172    0.6083   -1.0037 H   0  0  0  0  0  0  0  0  0  0  0  0
    3.4211    2.4384    1.4540 H   0  0  0  0  0  0  0  0  0  0  0  0
    1.6336   -1.3261    0.3659 H   0  0  0  0  0  0  0  0  0  0  0  0
    5.6626    1.3683    1.4492 H   0  0  0  0  0  0  0  0  0  0  0  0
    3.8600   -2.3800    0.3516 H   0  0  0  0  0  0  0  0  0  0  0  0
    5.8835   -1.0423    0.8911 H   0  0  0  0  0  0  0  0  0  0  0  0
   -0.7469   -0.2540    0.0000 H   0  0  0  0  0  0  0  0  0  0  0  0
    0.7759   -0.1427    0.0000 H   0  0  0  0  0  0  0  0  0  0  0  0
  3  4  1  0
  4  2  1  0
  5  3  2  0
  6  2  1  0
  7  2  2  0
  8  5  1  0
  9  8  1  0
 10  9  1  0
 11  3  1  0
 12 11  2  0
 13  8  2  0
 14  4  1  0
 15 10  2  0
 16 10  1  0
 17 16  2  0
 18 15  1  0
 19 17  1  0
 12 13  1  0
 18 19  2  0
 21 22  1  0
 22 20  1  0
 23 21  2  0
 24 20  1  0
 25 20  2  0
 26 23  1  0
 27 26  1  0
 28 27  1  0
 29 21  1  0
 30 29  2  0
 31 26  2  0
 32 22  1  0
 33 28  2  0
 34 28  1  0
 35 33  1  0
 36 34  2  0
 37 36  1  0
 30 31  1  0
 35 37  2  0
  1 40  1  0
  1 41  1  0
  4 42  1  1
  5 43  1  0
 11 44  1  0
 12 45  1  0
 13 46  1  0
 14 47  1  0
 14 48  1  0
 14 49  1  0
 15 50  1  0
 16 51  1  0
 17 52  1  0
 18 53  1  0
 19 54  1  0
 22 55  1  1
 23 56  1  0
 29 57  1  0
 30 58  1  0
 31 59  1  0
 32 60  1  0
 32 61  1  0
 32 62  1  0
 33 63  1  0
 34 64  1  0
 35 65  1  0
 36 66  1  0
 37 67  1  0
 39 68  1  0
 39 69  1  0
M  CHG  3   6  -1  24  -1  38   2
M  END
$$$$
