
     RDKit          3D

 69 68  0  0  0  0  0  0  0  0999 V2000
    0.0020    0.3978    0.0000 O   0  0  0  0  0  0  0  0  0  0  0  0
   -3.4732    2.1485    0.6751 C   0  0  0  0  0  0  0  0  0  0  0  0
   -2.0187    0.1866    0.0127 C   0  0  0  0  0  0  0  0  0  0  0  0
   -3.1499    1.1071   -0.4208 C   0  0  1  0  0  0  0  0  0  0  0  0
   -0.8693    0.0622   -0.7822 C   0  0  0  0  0  0  0  0  0  0  0  0
   -4.4128    1.8563    1.4723 O   0  0  0  0  0  0  0  0  0  0  0  0
   -2.7686    3.1994    0.6375 O   0  0  0  0  0  0  0  0  0  0  0  0
    0.1757   -0.7699   -0.3814 C   0  0  0  0  0  0  0  0  0  0  0  0
    1.2764   -0.8604   -1.2016 O   0  0  0  0  0  0  0  0  0  0  0  0
    2.4915   -0.5180   -0.6490 C   0  0  0  0  0  0  0  0  0  0  0  0
   -2.1022   -0.5641    1.1962 C   0  0  0  0  0  0  0  0  0  0  0  0
   -1.0657   -1.4179    1.5791 C   0  0  0  0  0  0  0  0  0  0  0  0
    0.0744   -1.5272    0.7869 C   0  0  0  0  0  0  0  0  0  0  0  0
   -4.3800    0.3034   -0.8428 C   0  0  0  0  0  0  0  0  0  0  0  0
    3.5920   -1.2811   -1.0419 C   0  0  0  0  0  0  0  0  0  0  0  0
    2.6658    0.5706    0.2099 C   0  0  0  0  0  0  0  0  0  0  0  0
    3.9383    0.8724    0.6987 C   0  0  0  0  0  0  0  0  0  0  0  0
    4.8631   -0.9779   -0.5518 C   0  0  0  0  0  0  0  0  0  0  0  0
    5.0356    0.0971    0.3203 C   0  0  0  0  0  0  0  0  0  0  0  0
   -2.9584    0.3203    2.2905 C   0  0  0  0  0  0  0  0  0  0  0  0
   -2.1568   -0.1913   -0.0470 C   0  0  0  0  0  0  0  0  0  0  0  0
   -3.2951   -0.3641    0.9464 C   0  0  1  0  0  0  0  0  0  0  0  0
   -0.8908   -0.7511    0.1862 C   0  0  0  0  0  0  0  0  0  0  0  0
   -2.4110   -0.4066    3.1700 O   0  0  0  0  0  0  0  0  0  0  0  0
   -3.2982    1.5385    2.3689 O   0  0  0  0  0  0  0  0  0  0  0  0
    0.1430   -0.5599   -0.7311 C   0  0  0  0  0  0  0  0  0  0  0  0
    1.3647   -1.1345   -0.4640 O   0  0  0  0  0  0  0  0  0  0  0  0
    2.4312   -0.2729   -0.3178 C   0  0  0  0  0  0  0  0  0  0  0  0
   -2.3592    0.5474   -1.2247 C   0  0  0  0  0  0  0  0  0  0  0  0
   -1.3283    0.7129   -2.1534 C   0  0  0  0  0  0  0  0  0  0  0  0
   -0.0760    0.1520   -1.9118 C   0  0  0  0  0  0  0  0  0  0  0  0
   -3.6697   -1.8341    1.1279 C   0  0  0  0  0  0  0  0  0  0  0  0
    2.3461    0.9466    0.3610 C   0  0  0  0  0  0  0  0  0  0  0  0
    3.6559   -0.7011   -0.8324 C   0  0  0  0  0  0  0  0  0  0  0  0
    3.4799    1.7513    0.4878 C   0  0  0  0  0  0  0  0  0  0  0  0
    4.7883    0.1046   -0.7035 C   0  0  0  0  0  0  0  0  0  0  0  0
    4.6979    1.3344   -0.0497 C   0  0  0  0  0  0  0  0  0  0  0  0
    0.0000    0.0000    0.0000 Ca  0  0  0  0  0 15  0  0  0  0  0  0
    0.0011    0.3978    0.0000 O   0  0  0  0  0  0  0  0  0  0  0  0
    0.7624   -0.2028    0.0000 H   0  0  0  0  0  0  0  0  0  0  0  0
   -0.7644   -0.1950    0.0000 H   0  0  0  0  0  0  0  0  0  0  0  0
   -2.8247    1.6796   -1.3004 H   0  0  0  0  0  0  0  0  0  0  0  0
   -0.7782    0.6344   -1.7010 H   0  0  0  0  0  0  0  0  0  0  0  0
   -2.9832   -0.4699    1.8320 H   0  0  0  0  0  0  0  0  0  0  0  0
   -1.1521   -1.9873    2.4990 H   0  0  0  0  0  0  0  0  0  0  0  0
    0.8786   -2.1912    1.0843 H   0  0  0  0  0  0  0  0  0  0  0  0
   -4.1461   -0.3560   -1.6888 H   0  0  0  0  0  0  0  0  0  0  0  0
   -4.7615   -0.3269   -0.0329 H   0  0  0  0  0  0  0  0  0  0  0  0
   -5.1922    0.9710   -1.1524 H   0  0  0  0  0  0  0  0  0  0  0  0
    3.4550   -2.1123   -1.7272 H   0  0  0  0  0  0  0  0  0  0  0  0
    1.8211    1.1930    0.4976 H   0  0  0  0  0  0  0  0  0  0  0  0
    4.0687    1.7177    1.3692 H   0  0  0  0  0  0  0  0  0  0  0  0
    5.7171   -1.5766   -0.8543 H   0  0  0  0  0  0  0  0  0  0  0  0
    6.0252    0.3375    0.6999 H   0  0  0  0  0  0  0  0  0  0  0  0
   -4.1885    0.1399    0.5518 H   0  0  0  0  0  0  0  0  0  0  0  0
   -0.7030   -1.3073    1.1033 H   0  0  0  0  0  0  0  0  0  0  0  0
   -3.3270    1.0070   -1.4136 H   0  0  0  0  0  0  0  0  0  0  0  0
   -1.5032    1.2874   -3.0577 H   0  0  0  0  0  0  0  0  0  0  0  0
    0.7262    0.2801   -2.6311 H   0  0  0  0  0  0  0  0  0  0  0  0
   -2.8387   -2.4366    1.5117 H   0  0  0  0  0  0  0  0  0  0  0  0
   -3.9840   -2.2763    0.1763 H   0  0  0  0  0  0  0  0  0  0  0  0
   -4.4993   -1.9348    1.8356 H   0  0  0  0  0  0  0  0  0  0  0  0
    1.4060    1.2711    0.8034 H   0  0  0  0  0  0  0  0  0  0  0  0
    3.7232   -1.6610   -1.3350 H   0  0  0  0  0  0  0  0  0  0  0  0
    3.4071    2.7014    1.0104 H   0  0  0  0  0  0  0  0  0  0  0  0
    5.7393   -0.2260   -1.1111 H   0  0  0  0  0  0  0  0  0  0  0  0
    5.5782    1.9630    0.0526 H   0  0  0  0  0  0  0  0  0  0  0  0
    0.7629   -0.2010    0.0000 H   0  0  0  0  0  0  0  0  0  0  0  0
   -0.7640   -0.1968    0.0000 H   0  0  0  0  0  0  0  0  0  0  0  0
  3  4  1  0
  4  2  1  0
  5  3  2  0
  6  2  1  0
  7  2  2  0
  8  5  1  0
  9  8  1  0
 10  9  1  0
 11  3  1  0
 12 11  2  0
 13  8  2  0
 14  4  1  0
 15 10  2  0
 16 10  1  0
 17 16  2  0
 18 15  1  0
 19 17  1  0
 12 13  1  0
 18 19  2  0
 21 22  1  0
 22 20  1  0
 23 21  2  0
 24 20  1  0
 25 20  2  0
 26 23  1  0
 27 26  1  0
 28 27  1  0
 29 21  1  0
 30 29  2  0
 31 26  2  0
 32 22  1  0
 33 28  2  0
 34 28  1  0
 35 33  1  0
 36 34  2  0
 37 36  1  0
 30 31  1  0
 35 37  2  0
  1 40  1  0
  1 41  1  0
  4 42  1  6
  5 43  1  0
 11 44  1  0
 12 45  1  0
 13 46  1  0
 14 47  1  0
 14 48  1  0
 14 49  1  0
 15 50  1  0
 16 51  1  0
 17 52  1  0
 18 53  1  0
 19 54  1  0
 22 55  1  6
 23 56  1  0
 29 57  1  0
 30 58  1  0
 31 59  1  0
 32 60  1  0
 32 61  1  0
 32 62  1  0
 33 63  1  0
 34 64  1  0
 35 65  1  0
 36 66  1  0
 37 67  1  0
 39 68  1  0
 39 69  1  0
M  CHG  3   6  -1  24  -1  38   2
M  END
$$$$
