
     RDKit          3D

 54 55  0  0  0  0  0  0  0  0999 V2000
    0.2991    1.1772    0.2408 N   0  0  0  0  0  0  0  0  0  0  0  0
    1.1644    0.1576   -0.0725 C   0  0  0  0  0  0  0  0  0  0  0  0
   -1.4869   -0.4107    0.0448 N   0  0  0  0  0  0  0  0  0  0  0  0
   -1.0711    0.9132    0.3082 C   0  0  0  0  0  0  0  0  0  0  0  0
    0.7196   -1.1025   -0.3187 C   0  0  0  0  0  0  0  0  0  0  0  0
   -0.6459   -1.4786   -0.2773 C   0  0  0  0  0  0  0  0  0  0  0  0
    2.5194    0.2427   -0.1794 N   0  0  0  0  0  0  0  0  0  0  0  0
    1.8362   -1.8368   -0.5904 N   0  0  0  0  0  0  0  0  0  0  0  0
    2.9020   -0.9794   -0.4940 C   0  0  0  0  0  0  0  0  0  0  0  0
   -1.8924    1.7923    0.5855 O   0  0  0  0  0  0  0  0  0  0  0  0
   -1.0157   -2.6258   -0.5047 O   0  0  0  0  0  0  0  0  0  0  0  0
    0.8092    2.5114    0.4978 C   0  0  0  0  0  0  0  0  0  0  0  0
   -2.9124   -0.6628    0.1201 C   0  0  0  0  0  0  0  0  0  0  0  0
   -0.4101    1.1584    0.1527 N   0  0  0  0  0  0  0  0  0  0  0  0
   -1.1765    0.0251    0.0316 C   0  0  0  0  0  0  0  0  0  0  0  0
    1.5224   -0.2442   -0.0670 N   0  0  0  0  0  0  0  0  0  0  0  0
    0.9819    1.0493    0.1055 C   0  0  0  0  0  0  0  0  0  0  0  0
   -0.6132   -1.2005   -0.1330 C   0  0  0  0  0  0  0  0  0  0  0  0
    0.7846   -1.4237   -0.1944 C   0  0  0  0  0  0  0  0  0  0  0  0
   -2.5364   -0.0454    0.0559 N   0  0  0  0  0  0  0  0  0  0  0  0
   -1.6575   -2.0738   -0.2153 N   0  0  0  0  0  0  0  0  0  0  0  0
   -2.8021   -1.3281   -0.0957 C   0  0  0  0  0  0  0  0  0  0  0  0
    1.7178    2.0352    0.2091 O   0  0  0  0  0  0  0  0  0  0  0  0
    1.2624   -2.5434   -0.3439 O   0  0  0  0  0  0  0  0  0  0  0  0
   -1.0456    2.4514    0.3274 C   0  0  0  0  0  0  0  0  0  0  0  0
    2.9683   -0.3348   -0.1132 C   0  0  0  0  0  0  0  0  0  0  0  0
   -1.5756    0.2994   -0.5770 N   0  0  0  0  0  0  0  0  0  0  0  0
    1.2542    0.2875   -0.7164 N   0  0  0  0  0  0  0  0  0  0  0  0
    0.5973   -0.4724    0.3547 C   0  0  0  0  0  0  0  0  0  0  0  0
   -0.8107    0.0767    0.6553 C   0  0  0  0  0  0  0  0  0  0  0  0
    1.8648   -2.8226   -0.8181 H   0  0  0  0  0  0  0  0  0  0  0  0
    3.9215   -1.3016   -0.6625 H   0  0  0  0  0  0  0  0  0  0  0  0
    1.3386    2.8689   -0.3911 H   0  0  0  0  0  0  0  0  0  0  0  0
    0.0074    3.2161    0.7334 H   0  0  0  0  0  0  0  0  0  0  0  0
    1.5004    2.4725    1.3457 H   0  0  0  0  0  0  0  0  0  0  0  0
   -3.1662   -1.7040   -0.0939 H   0  0  0  0  0  0  0  0  0  0  0  0
   -3.4263   -0.0167   -0.5992 H   0  0  0  0  0  0  0  0  0  0  0  0
   -3.2656   -0.4103    1.1253 H   0  0  0  0  0  0  0  0  0  0  0  0
   -1.5925   -3.0761   -0.3404 H   0  0  0  0  0  0  0  0  0  0  0  0
   -3.7886   -1.7725   -0.1266 H   0  0  0  0  0  0  0  0  0  0  0  0
   -0.3126    3.2582    0.4090 H   0  0  0  0  0  0  0  0  0  0  0  0
   -1.6911    2.6515   -0.5337 H   0  0  0  0  0  0  0  0  0  0  0  0
   -1.6481    2.4329    1.2410 H   0  0  0  0  0  0  0  0  0  0  0  0
    3.3203   -1.3606   -0.2481 H   0  0  0  0  0  0  0  0  0  0  0  0
    3.3796    0.0620    0.8208 H   0  0  0  0  0  0  0  0  0  0  0  0
    3.3369    0.2792   -0.9415 H   0  0  0  0  0  0  0  0  0  0  0  0
   -0.9267    0.7537   -1.2303 H   0  0  0  0  0  0  0  0  0  0  0  0
   -1.7435   -0.6059   -1.0166 H   0  0  0  0  0  0  0  0  0  0  0  0
    1.3483    1.2604   -0.4231 H   0  0  0  0  0  0  0  0  0  0  0  0
    2.2034   -0.0640   -0.8393 H   0  0  0  0  0  0  0  0  0  0  0  0
    1.2086   -0.4394    1.2627 H   0  0  0  0  0  0  0  0  0  0  0  0
    0.5222   -1.5187    0.0385 H   0  0  0  0  0  0  0  0  0  0  0  0
   -0.7237    1.0343    1.1807 H   0  0  0  0  0  0  0  0  0  0  0  0
   -1.3536   -0.6116    1.3109 H   0  0  0  0  0  0  0  0  0  0  0  0
  2  1  1  0
  3  4  1  0
  4  1  1  0
  5  2  2  0
  6  3  1  0
  7  2  1  0
  8  5  1  0
  9  7  2  0
 10  4  2  0
 11  6  2  0
 12  1  1  0
 13  3  1  0
  5  6  1  0
  8  9  1  0
 15 14  1  0
 16 17  1  0
 17 14  1  0
 18 15  2  0
 19 16  1  0
 20 15  1  0
 21 18  1  0
 22 20  2  0
 23 17  2  0
 24 19  2  0
 25 14  1  0
 26 16  1  0
 18 19  1  0
 21 22  1  0
 28 29  1  0
 29 30  1  0
 30 27  1  0
  8 31  1  0
  9 32  1  0
 12 33  1  0
 12 34  1  0
 12 35  1  0
 13 36  1  0
 13 37  1  0
 13 38  1  0
 21 39  1  0
 22 40  1  0
 25 41  1  0
 25 42  1  0
 25 43  1  0
 26 44  1  0
 26 45  1  0
 26 46  1  0
 27 47  1  0
 27 48  1  0
 28 49  1  0
 28 50  1  0
 29 51  1  0
 29 52  1  0
 30 53  1  0
 30 54  1  0
M  END
$$$$
