
     RDKit          3D

 54 55  0  0  0  0  0  0  0  0999 V2000
   -0.8161    0.9308    0.0297 N   0  0  0  0  0  0  0  0  0  0  0  0
   -1.0961   -0.4103    0.1273 C   0  0  0  0  0  0  0  0  0  0  0  0
    1.4982    0.3330   -0.1615 N   0  0  0  0  0  0  0  0  0  0  0  0
    0.5107    1.3420   -0.1198 C   0  0  0  0  0  0  0  0  0  0  0  0
   -0.1131   -1.3474    0.0818 C   0  0  0  0  0  0  0  0  0  0  0  0
    1.2622   -1.0406   -0.0668 C   0  0  0  0  0  0  0  0  0  0  0  0
   -2.3254   -0.9774    0.2755 N   0  0  0  0  0  0  0  0  0  0  0  0
   -0.7479   -2.5480    0.2060 N   0  0  0  0  0  0  0  0  0  0  0  0
   -2.0865   -2.2734    0.3206 C   0  0  0  0  0  0  0  0  0  0  0  0
    0.8181    2.5342   -0.2127 O   0  0  0  0  0  0  0  0  0  0  0  0
    2.1261   -1.9104   -0.1047 O   0  0  0  0  0  0  0  0  0  0  0  0
   -1.8911    1.9044    0.0819 C   0  0  0  0  0  0  0  0  0  0  0  0
    2.8679    0.7814   -0.3170 C   0  0  0  0  0  0  0  0  0  0  0  0
   -0.7321   -0.9852   -0.1636 N   0  0  0  0  0  0  0  0  0  0  0  0
   -1.1333    0.3186   -0.0034 C   0  0  0  0  0  0  0  0  0  0  0  0
    1.5285   -0.2102    0.0341 N   0  0  0  0  0  0  0  0  0  0  0  0
    0.6320   -1.2863   -0.1485 C   0  0  0  0  0  0  0  0  0  0  0  0
   -0.2349    1.3232    0.1697 C   0  0  0  0  0  0  0  0  0  0  0  0
    1.1683    1.1292    0.2009 C   0  0  0  0  0  0  0  0  0  0  0  0
   -2.4140    0.7817    0.0069 N   0  0  0  0  0  0  0  0  0  0  0  0
   -0.9782    2.4599    0.2933 N   0  0  0  0  0  0  0  0  0  0  0  0
   -2.2922    2.0821    0.1882 C   0  0  0  0  0  0  0  0  0  0  0  0
    1.0472   -2.4407   -0.2879 O   0  0  0  0  0  0  0  0  0  0  0  0
    1.9539    2.0577    0.3592 O   0  0  0  0  0  0  0  0  0  0  0  0
   -1.7194   -2.0332   -0.3461 C   0  0  0  0  0  0  0  0  0  0  0  0
    2.9388   -0.5448    0.0467 C   0  0  0  0  0  0  0  0  0  0  0  0
    1.1165   -0.9198   -0.2762 N   0  0  0  0  0  0  0  0  0  0  0  0
   -1.6280   -0.2367   -0.4460 N   0  0  0  0  0  0  0  0  0  0  0  0
   -0.6655    0.8033   -0.0647 C   0  0  0  0  0  0  0  0  0  0  0  0
    0.6150    0.1943    0.5384 C   0  0  0  0  0  0  0  0  0  0  0  0
   -0.3094   -3.4603    0.2117 H   0  0  0  0  0  0  0  0  0  0  0  0
   -2.8298   -3.0522    0.4331 H   0  0  0  0  0  0  0  0  0  0  0  0
   -1.5187    2.9282   -0.0074 H   0  0  0  0  0  0  0  0  0  0  0  0
   -2.5870    1.7126   -0.7410 H   0  0  0  0  0  0  0  0  0  0  0  0
   -2.4165    1.8057    1.0371 H   0  0  0  0  0  0  0  0  0  0  0  0
    2.9526    1.3486   -1.2498 H   0  0  0  0  0  0  0  0  0  0  0  0
    3.1215    1.4457    0.5156 H   0  0  0  0  0  0  0  0  0  0  0  0
    3.5805   -0.0468   -0.3396 H   0  0  0  0  0  0  0  0  0  0  0  0
   -0.6221    3.3967    0.4348 H   0  0  0  0  0  0  0  0  0  0  0  0
   -3.1060    2.7930    0.2512 H   0  0  0  0  0  0  0  0  0  0  0  0
   -2.3069   -1.8181   -1.2442 H   0  0  0  0  0  0  0  0  0  0  0  0
   -1.2544   -3.0159   -0.4602 H   0  0  0  0  0  0  0  0  0  0  0  0
   -2.3794   -2.0581    0.5268 H   0  0  0  0  0  0  0  0  0  0  0  0
    3.1998   -1.0219   -0.9037 H   0  0  0  0  0  0  0  0  0  0  0  0
    3.5765    0.3309    0.1908 H   0  0  0  0  0  0  0  0  0  0  0  0
    3.1277   -1.2588    0.8551 H   0  0  0  0  0  0  0  0  0  0  0  0
    1.3383   -0.5741   -1.2103 H   0  0  0  0  0  0  0  0  0  0  0  0
    1.9961   -1.2509    0.1191 H   0  0  0  0  0  0  0  0  0  0  0  0
   -1.9442   -0.7058    0.4030 H   0  0  0  0  0  0  0  0  0  0  0  0
   -1.0796   -0.9649   -0.9187 H   0  0  0  0  0  0  0  0  0  0  0  0
   -0.4085    1.3762   -0.9627 H   0  0  0  0  0  0  0  0  0  0  0  0
   -1.1276    1.4948    0.6472 H   0  0  0  0  0  0  0  0  0  0  0  0
    1.3859    0.9670    0.6265 H   0  0  0  0  0  0  0  0  0  0  0  0
    0.4018   -0.1834    1.5445 H   0  0  0  0  0  0  0  0  0  0  0  0
  2  1  1  0
  3  4  1  0
  4  1  1  0
  5  2  2  0
  6  3  1  0
  7  2  1  0
  8  5  1  0
  9  7  2  0
 10  4  2  0
 11  6  2  0
 12  1  1  0
 13  3  1  0
  5  6  1  0
  8  9  1  0
 15 14  1  0
 16 17  1  0
 17 14  1  0
 18 15  2  0
 19 16  1  0
 20 15  1  0
 21 18  1  0
 22 20  2  0
 23 17  2  0
 24 19  2  0
 25 14  1  0
 26 16  1  0
 18 19  1  0
 21 22  1  0
 28 29  1  0
 29 30  1  0
 30 27  1  0
  8 31  1  0
  9 32  1  0
 12 33  1  0
 12 34  1  0
 12 35  1  0
 13 36  1  0
 13 37  1  0
 13 38  1  0
 21 39  1  0
 22 40  1  0
 25 41  1  0
 25 42  1  0
 25 43  1  0
 26 44  1  0
 26 45  1  0
 26 46  1  0
 27 47  1  0
 27 48  1  0
 28 49  1  0
 28 50  1  0
 29 51  1  0
 29 52  1  0
 30 53  1  0
 30 54  1  0
M  END
$$$$
