
     RDKit          3D

 30 31  0  0  0  0  0  0  0  0999 V2000
   -0.1393    1.3869    0.0913 N   0  0  0  0  0  0  0  0  0  0  0  0
    0.9296    0.5703   -0.0612 C   0  0  0  0  0  0  0  0  0  0  0  0
   -1.4634   -0.5310    0.1168 N   0  0  0  0  0  0  0  0  0  0  0  0
   -1.3551    0.8025    0.1804 C   0  0  0  0  0  0  0  0  0  0  0  0
    0.8315   -0.7887   -0.1272 C   0  0  0  0  0  0  0  0  0  0  0  0
   -0.4093   -1.3597   -0.0349 C   0  0  0  0  0  0  0  0  0  0  0  0
    2.2391    0.8549   -0.1764 N   0  0  0  0  0  0  0  0  0  0  0  0
    2.0632   -1.3145   -0.2798 N   0  0  0  0  0  0  0  0  0  0  0  0
    2.9375   -0.2881   -0.3100 C   0  0  0  0  0  0  0  0  0  0  0  0
   -2.3356    1.5813    0.3219 O   0  0  0  0  0  0  0  0  0  0  0  0
   -0.5364   -2.6057   -0.0917 O   0  0  0  0  0  0  0  0  0  0  0  0
    0.0151    2.8368    0.1568 C   0  0  0  0  0  0  0  0  0  0  0  0
   -2.7767   -1.1451    0.2140 C   0  0  0  0  0  0  0  0  0  0  0  0
    0.0721    1.3551    0.1082 N   0  0  0  0  0  0  0  0  0  0  0  0
    1.0532    0.4259    0.0177 C   0  0  0  0  0  0  0  0  0  0  0  0
   -1.5594   -0.3165   -0.0009 N   0  0  0  0  0  0  0  0  0  0  0  0
   -1.2375    0.9822    0.0989 C   0  0  0  0  0  0  0  0  0  0  0  0
    0.7308   -0.9063   -0.0847 C   0  0  0  0  0  0  0  0  0  0  0  0
   -0.6166   -1.2743   -0.0931 C   0  0  0  0  0  0  0  0  0  0  0  0
    2.4002    0.5577    0.0070 N   0  0  0  0  0  0  0  0  0  0  0  0
    1.8840   -1.5928   -0.1584 N   0  0  0  0  0  0  0  0  0  0  0  0
    2.8965   -0.6940   -0.1019 C   0  0  0  0  0  0  0  0  0  0  0  0
   -2.1207    1.8850    0.1857 O   0  0  0  0  0  0  0  0  0  0  0  0
   -0.9164   -2.4933   -0.1868 O   0  0  0  0  0  0  0  0  0  0  0  0
    0.3994    2.7442    0.2152 C   0  0  0  0  0  0  0  0  0  0  0  0
   -2.9856   -0.6730   -0.0071 C   0  0  0  0  0  0  0  0  0  0  0  0
   -1.4230    0.5874    0.1492 N   0  0  0  0  0  0  0  0  0  0  0  0
    1.4319    0.5775   -0.1501 N   0  0  0  0  0  0  0  0  0  0  0  0
    0.7016   -0.5838    0.2851 C   0  0  0  0  0  0  0  0  0  0  0  0
   -0.7105   -0.5811   -0.2842 C   0  0  0  0  0  0  0  0  0  0  0  0
  2  1  1  0
  3  4  1  0
  4  1  1  0
  5  2  2  0
  6  3  1  0
  7  2  1  0
  8  5  1  0
  9  7  2  0
 10  4  2  0
 11  6  2  0
 12  1  1  0
 13  3  1  0
  5  6  1  0
  8  9  1  0
 15 14  1  0
 16 17  1  0
 17 14  1  0
 18 15  2  0
 19 16  1  0
 20 15  1  0
 21 18  1  0
 22 20  2  0
 23 17  2  0
 24 19  2  0
 25 14  1  0
 26 16  1  0
 18 19  1  0
 21 22  1  0
 28 29  1  0
 29 30  1  0
 30 27  1  0
M  END
