
     RDKit          3D

 54 55  0  0  0  0  0  0  0  0999 V2000
   -0.3672    1.1753   -0.1312 N   0  0  0  0  0  0  0  0  0  0  0  0
   -1.1747    0.0747    0.0205 C   0  0  0  0  0  0  0  0  0  0  0  0
    1.5122   -0.3084   -0.0010 N   0  0  0  0  0  0  0  0  0  0  0  0
    1.0197    1.0075   -0.1459 C   0  0  0  0  0  0  0  0  0  0  0  0
   -0.6569   -1.1742    0.1567 C   0  0  0  0  0  0  0  0  0  0  0  0
    0.7316   -1.4563    0.1556 C   0  0  0  0  0  0  0  0  0  0  0  0
   -2.5361    0.0616    0.0562 N   0  0  0  0  0  0  0  0  0  0  0  0
   -1.7325   -2.0032    0.2827 N   0  0  0  0  0  0  0  0  0  0  0  0
   -2.8487   -1.2095    0.2158 C   0  0  0  0  0  0  0  0  0  0  0  0
    1.7914    1.9620   -0.2792 O   0  0  0  0  0  0  0  0  0  0  0  0
    1.1678   -2.5958    0.2808 O   0  0  0  0  0  0  0  0  0  0  0  0
   -0.9545    2.4947   -0.2741 C   0  0  0  0  0  0  0  0  0  0  0  0
    2.9536   -0.4600   -0.0190 C   0  0  0  0  0  0  0  0  0  0  0  0
   -0.0951    1.2310    0.0953 N   0  0  0  0  0  0  0  0  0  0  0  0
    1.0655    0.4979    0.0507 C   0  0  0  0  0  0  0  0  0  0  0  0
   -1.2928   -0.8390   -0.0799 N   0  0  0  0  0  0  0  0  0  0  0  0
   -1.3235    0.5688    0.0299 C   0  0  0  0  0  0  0  0  0  0  0  0
    1.0478   -0.8567   -0.0555 C   0  0  0  0  0  0  0  0  0  0  0  0
   -0.1397   -1.6261   -0.1288 C   0  0  0  0  0  0  0  0  0  0  0  0
    2.3375    0.9819    0.1027 N   0  0  0  0  0  0  0  0  0  0  0  0
    2.3570   -1.2384   -0.0709 N   0  0  0  0  0  0  0  0  0  0  0  0
    3.1009   -0.0907    0.0271 C   0  0  0  0  0  0  0  0  0  0  0  0
   -2.3965    1.1786    0.0658 O   0  0  0  0  0  0  0  0  0  0  0  0
   -0.1222   -2.8488   -0.2243 O   0  0  0  0  0  0  0  0  0  0  0  0
   -0.0388    2.6767    0.2091 C   0  0  0  0  0  0  0  0  0  0  0  0
   -2.5781   -1.5059   -0.1463 C   0  0  0  0  0  0  0  0  0  0  0  0
   -1.2337    0.8783   -0.0693 N   0  0  0  0  0  0  0  0  0  0  0  0
    1.5880    0.4512    0.3189 N   0  0  0  0  0  0  0  0  0  0  0  0
    0.7279   -0.6474   -0.1253 C   0  0  0  0  0  0  0  0  0  0  0  0
   -0.7224   -0.4353    0.3475 C   0  0  0  0  0  0  0  0  0  0  0  0
   -1.7044   -3.0079    0.4020 H   0  0  0  0  0  0  0  0  0  0  0  0
   -3.8508   -1.6121    0.2890 H   0  0  0  0  0  0  0  0  0  0  0  0
   -1.5524    2.7179    0.6152 H   0  0  0  0  0  0  0  0  0  0  0  0
   -0.1923    3.2703   -0.3858 H   0  0  0  0  0  0  0  0  0  0  0  0
   -1.5969    2.5058   -1.1603 H   0  0  0  0  0  0  0  0  0  0  0  0
    3.3398   -0.0764   -0.9691 H   0  0  0  0  0  0  0  0  0  0  0  0
    3.2676   -1.5002    0.0973 H   0  0  0  0  0  0  0  0  0  0  0  0
    3.3839    0.1341    0.7939 H   0  0  0  0  0  0  0  0  0  0  0  0
    2.7042   -2.1865   -0.1413 H   0  0  0  0  0  0  0  0  0  0  0  0
    4.1832   -0.1013    0.0383 H   0  0  0  0  0  0  0  0  0  0  0  0
   -1.0364    3.1229    0.2330 H   0  0  0  0  0  0  0  0  0  0  0  0
    0.4851    2.9422    1.1328 H   0  0  0  0  0  0  0  0  0  0  0  0
    0.5047    3.0818   -0.6504 H   0  0  0  0  0  0  0  0  0  0  0  0
   -3.1495   -1.2677    0.7568 H   0  0  0  0  0  0  0  0  0  0  0  0
   -2.4837   -2.5914   -0.2302 H   0  0  0  0  0  0  0  0  0  0  0  0
   -3.1299   -1.1291   -1.0138 H   0  0  0  0  0  0  0  0  0  0  0  0
   -1.2820    0.9113   -1.0867 H   0  0  0  0  0  0  0  0  0  0  0  0
   -2.1910    0.9797    0.2661 H   0  0  0  0  0  0  0  0  0  0  0  0
    2.3582    0.5697   -0.3348 H   0  0  0  0  0  0  0  0  0  0  0  0
    1.0241    1.3062    0.2661 H   0  0  0  0  0  0  0  0  0  0  0  0
    1.1161   -1.5963    0.2574 H   0  0  0  0  0  0  0  0  0  0  0  0
    0.7460   -0.6943   -1.2205 H   0  0  0  0  0  0  0  0  0  0  0  0
   -0.7677   -0.4986    1.4405 H   0  0  0  0  0  0  0  0  0  0  0  0
   -1.3634   -1.2244   -0.0598 H   0  0  0  0  0  0  0  0  0  0  0  0
  2  1  1  0
  3  4  1  0
  4  1  1  0
  5  2  2  0
  6  3  1  0
  7  2  1  0
  8  5  1  0
  9  7  2  0
 10  4  2  0
 11  6  2  0
 12  1  1  0
 13  3  1  0
  5  6  1  0
  8  9  1  0
 15 14  1  0
 16 17  1  0
 17 14  1  0
 18 15  2  0
 19 16  1  0
 20 15  1  0
 21 18  1  0
 22 20  2  0
 23 17  2  0
 24 19  2  0
 25 14  1  0
 26 16  1  0
 18 19  1  0
 21 22  1  0
 28 29  1  0
 29 30  1  0
 30 27  1  0
  8 31  1  0
  9 32  1  0
 12 33  1  0
 12 34  1  0
 12 35  1  0
 13 36  1  0
 13 37  1  0
 13 38  1  0
 21 39  1  0
 22 40  1  0
 25 41  1  0
 25 42  1  0
 25 43  1  0
 26 44  1  0
 26 45  1  0
 26 46  1  0
 27 47  1  0
 27 48  1  0
 28 49  1  0
 28 50  1  0
 29 51  1  0
 29 52  1  0
 30 53  1  0
 30 54  1  0
M  END
$$$$
