
     RDKit          3D

 54 55  0  0  0  0  0  0  0  0999 V2000
    0.5427   -1.0977    0.1836 N   0  0  0  0  0  0  0  0  0  0  0  0
    1.1712    0.1144    0.0339 C   0  0  0  0  0  0  0  0  0  0  0  0
   -1.5401    0.0615   -0.0773 N   0  0  0  0  0  0  0  0  0  0  0  0
   -0.8523   -1.1542    0.1320 C   0  0  0  0  0  0  0  0  0  0  0  0
    0.4685    1.2604   -0.1641 C   0  0  0  0  0  0  0  0  0  0  0  0
   -0.9456    1.3161   -0.2332 C   0  0  0  0  0  0  0  0  0  0  0  0
    2.5133    0.3449    0.0585 N   0  0  0  0  0  0  0  0  0  0  0  0
    1.4034    2.2478   -0.2686 N   0  0  0  0  0  0  0  0  0  0  0  0
    2.6272    1.6452   -0.1278 C   0  0  0  0  0  0  0  0  0  0  0  0
   -1.4678   -2.2166    0.2625 O   0  0  0  0  0  0  0  0  0  0  0  0
   -1.5512    2.3679   -0.4110 O   0  0  0  0  0  0  0  0  0  0  0  0
    1.3246   -2.3019    0.3951 C   0  0  0  0  0  0  0  0  0  0  0  0
   -2.9865   -0.0197   -0.1275 C   0  0  0  0  0  0  0  0  0  0  0  0
   -0.3153   -1.1801   -0.2033 N   0  0  0  0  0  0  0  0  0  0  0  0
   -1.1162   -0.0764   -0.3668 C   0  0  0  0  0  0  0  0  0  0  0  0
    1.4286    0.3109    0.4940 N   0  0  0  0  0  0  0  0  0  0  0  0
    0.9999   -1.0100    0.2362 C   0  0  0  0  0  0  0  0  0  0  0  0
   -0.6600    1.1778   -0.1110 C   0  0  0  0  0  0  0  0  0  0  0  0
    0.6529    1.4625    0.3389 C   0  0  0  0  0  0  0  0  0  0  0  0
   -2.4120   -0.0647   -0.7858 N   0  0  0  0  0  0  0  0  0  0  0  0
   -1.7077    2.0087   -0.3793 N   0  0  0  0  0  0  0  0  0  0  0  0
   -2.7466    1.2108   -0.7845 C   0  0  0  0  0  0  0  0  0  0  0  0
    1.7637   -1.9668    0.3955 O   0  0  0  0  0  0  0  0  0  0  0  0
    1.0355    2.6071    0.5581 O   0  0  0  0  0  0  0  0  0  0  0  0
   -0.8348   -2.5051   -0.4876 C   0  0  0  0  0  0  0  0  0  0  0  0
    2.7963    0.4648    0.9484 C   0  0  0  0  0  0  0  0  0  0  0  0
    1.4318   -0.2398    0.6633 N   0  0  0  0  0  0  0  0  0  0  0  0
   -0.9743    1.1567   -0.0802 N   0  0  0  0  0  0  0  0  0  0  0  0
   -0.8585   -0.2960   -0.2727 C   0  0  0  0  0  0  0  0  0  0  0  0
    0.6110   -0.7223   -0.4490 C   0  0  0  0  0  0  0  0  0  0  0  0
    1.2219    3.2317   -0.4213 H   0  0  0  0  0  0  0  0  0  0  0  0
    3.5548    2.2014   -0.1698 H   0  0  0  0  0  0  0  0  0  0  0  0
    1.9061   -2.1928    1.3162 H   0  0  0  0  0  0  0  0  0  0  0  0
    2.0032   -2.4412   -0.4526 H   0  0  0  0  0  0  0  0  0  0  0  0
    0.6918   -3.1886    0.4841 H   0  0  0  0  0  0  0  0  0  0  0  0
   -3.4556    0.9519   -0.3017 H   0  0  0  0  0  0  0  0  0  0  0  0
   -3.3524   -0.4268    0.8206 H   0  0  0  0  0  0  0  0  0  0  0  0
   -3.2771   -0.7037   -0.9317 H   0  0  0  0  0  0  0  0  0  0  0  0
   -1.7102    3.0172   -0.2936 H   0  0  0  0  0  0  0  0  0  0  0  0
   -3.7120    1.6140   -1.0625 H   0  0  0  0  0  0  0  0  0  0  0  0
   -0.0862   -3.2819   -0.3127 H   0  0  0  0  0  0  0  0  0  0  0  0
   -1.6956   -2.6978    0.1600 H   0  0  0  0  0  0  0  0  0  0  0  0
   -1.1449   -2.5504   -1.5367 H   0  0  0  0  0  0  0  0  0  0  0  0
    2.9406   -0.1288    1.8571 H   0  0  0  0  0  0  0  0  0  0  0  0
    3.0534    1.5057    1.1607 H   0  0  0  0  0  0  0  0  0  0  0  0
    3.4706    0.0823    0.1750 H   0  0  0  0  0  0  0  0  0  0  0  0
    1.0668    0.6836    0.9197 H   0  0  0  0  0  0  0  0  0  0  0  0
    2.3880   -0.0974    0.3474 H   0  0  0  0  0  0  0  0  0  0  0  0
   -1.9586    1.3956    0.0343 H   0  0  0  0  0  0  0  0  0  0  0  0
   -0.6607    1.6324   -0.9250 H   0  0  0  0  0  0  0  0  0  0  0  0
   -1.4388   -0.5968   -1.1514 H   0  0  0  0  0  0  0  0  0  0  0  0
   -1.2875   -0.8006    0.6001 H   0  0  0  0  0  0  0  0  0  0  0  0
    0.9971   -0.3031   -1.3856 H   0  0  0  0  0  0  0  0  0  0  0  0
    0.6837   -1.8123   -0.5140 H   0  0  0  0  0  0  0  0  0  0  0  0
  2  1  1  0
  3  4  1  0
  4  1  1  0
  5  2  2  0
  6  3  1  0
  7  2  1  0
  8  5  1  0
  9  7  2  0
 10  4  2  0
 11  6  2  0
 12  1  1  0
 13  3  1  0
  5  6  1  0
  8  9  1  0
 15 14  1  0
 16 17  1  0
 17 14  1  0
 18 15  2  0
 19 16  1  0
 20 15  1  0
 21 18  1  0
 22 20  2  0
 23 17  2  0
 24 19  2  0
 25 14  1  0
 26 16  1  0
 18 19  1  0
 21 22  1  0
 28 29  1  0
 29 30  1  0
 30 27  1  0
  8 31  1  0
  9 32  1  0
 12 33  1  0
 12 34  1  0
 12 35  1  0
 13 36  1  0
 13 37  1  0
 13 38  1  0
 21 39  1  0
 22 40  1  0
 25 41  1  0
 25 42  1  0
 25 43  1  0
 26 44  1  0
 26 45  1  0
 26 46  1  0
 27 47  1  0
 27 48  1  0
 28 49  1  0
 28 50  1  0
 29 51  1  0
 29 52  1  0
 30 53  1  0
 30 54  1  0
M  END
$$$$
