
     RDKit          3D

 73 81  0  0  0  0  0  0  0  0999 V2000
   -3.4920   -1.0893    0.5939 C   0  0  0  0  0  0  0  0  0  0  0  0
   -2.4474   -0.5527   -0.1281 C   0  0  0  0  0  0  0  0  0  0  0  0
   -2.3049    0.9906   -0.2885 C   0  0  0  0  0  0  0  0  0  0  0  0
   -3.2235    1.8584    0.2785 C   0  0  0  0  0  0  0  0  0  0  0  0
   -4.2748    1.2328    0.9660 C   0  0  0  0  0  0  0  0  0  0  0  0
   -4.4209   -0.1803    1.1271 C   0  0  0  0  0  0  0  0  0  0  0  0
   -1.6312   -1.5512   -0.5945 N   0  0  0  0  0  0  0  0  0  0  0  0
   -3.2794   -2.4951    0.6225 C   0  0  0  0  0  0  0  0  0  0  0  0
   -2.0756   -2.7601   -0.0581 C   0  0  0  0  0  0  0  0  0  0  0  0
   -1.3468    1.6951   -0.9491 N   0  0  0  0  0  0  0  0  0  0  0  0
   -1.5944    3.0510   -0.7949 C   0  0  0  0  0  0  0  0  0  0  0  0
   -2.7708    3.1766   -0.0371 C   0  0  0  0  0  0  0  0  0  0  0  0
   -2.2613   -5.1027    0.5229 C   0  0  0  0  0  0  0  0  0  0  0  0
   -1.5454   -4.0644   -0.0823 C   0  0  0  0  0  0  0  0  0  0  0  0
   -3.9822   -3.5644    1.2213 C   0  0  0  0  0  0  0  0  0  0  0  0
   -3.4708   -4.8612    1.1569 C   0  0  0  0  0  0  0  0  0  0  0  0
   -0.8884    4.1729   -1.2662 C   0  0  0  0  0  0  0  0  0  0  0  0
   -1.3833    5.4438   -0.9652 C   0  0  0  0  0  0  0  0  0  0  0  0
   -2.5456    5.5963   -0.2206 C   0  0  0  0  0  0  0  0  0  0  0  0
   -3.2424    4.4770    0.2460 C   0  0  0  0  0  0  0  0  0  0  0  0
   -0.6948   -0.1564   -2.2807 O   0  0  0  0  0  0  0  0  0  0  0  0
    1.1279    1.2085   -1.2632 C   0  0  0  0  0  0  0  0  0  0  0  0
    0.8716   -1.1863   -0.5861 C   0  0  2  0  0  0  0  0  0  0  0  0
    1.7888   -0.1730   -1.3061 C   0  0  2  0  0  0  0  0  0  0  0  0
   -0.3068    1.1327   -1.8008 C   0  0  2  0  0  0  0  0  0  0  0  0
   -0.4426   -1.3075   -1.4316 C   0  0  1  0  0  0  0  0  0  0  0  0
    3.2141   -0.2176   -0.8954 N   0  0  0  0  0  0  0  0  0  0  0  0
    3.6772    0.4658    0.2332 C   0  0  0  0  0  0  0  0  0  0  0  0
    4.0529   -1.1578   -1.6389 C   0  0  0  0  0  0  0  0  0  0  0  0
    2.9608    1.0343    1.0489 O   0  0  0  0  0  0  0  0  0  0  0  0
    5.1375    0.5508    0.4707 C   0  0  0  0  0  0  0  0  0  0  0  0
    5.9903    1.0780   -0.5065 C   0  0  0  0  0  0  0  0  0  0  0  0
    7.3596    1.1669   -0.2532 C   0  0  0  0  0  0  0  0  0  0  0  0
    7.8699    0.7468    0.9765 C   0  0  0  0  0  0  0  0  0  0  0  0
    7.0143    0.2489    1.9606 C   0  0  0  0  0  0  0  0  0  0  0  0
    5.6445    0.1564    1.7127 C   0  0  0  0  0  0  0  0  0  0  0  0
    0.5758   -0.6870    0.7273 O   0  0  0  0  0  0  0  0  0  0  0  0
    1.1034   -1.4886    1.7738 C   0  0  0  0  0  0  0  0  0  0  0  0
   -5.4062    1.8644    1.6623 C   0  0  0  0  0  0  0  0  0  0  0  0
   -6.1682    0.8535    2.2058 N   0  0  0  0  0  0  0  0  0  0  0  0
   -5.6448   -0.4582    1.9481 C   0  0  0  0  0  0  0  0  0  0  0  0
   -5.6613    3.0477    1.7610 O   0  0  0  0  0  0  0  0  0  0  0  0
   -0.2621   -2.3944   -2.5194 C   0  0  0  0  0  0  0  0  0  0  0  0
   -1.8609   -6.1139    0.4993 H   0  0  0  0  0  0  0  0  0  0  0  0
   -0.5929   -4.2964   -0.5392 H   0  0  0  0  0  0  0  0  0  0  0  0
   -4.9132   -3.3832    1.7497 H   0  0  0  0  0  0  0  0  0  0  0  0
   -4.0139   -5.6791    1.6231 H   0  0  0  0  0  0  0  0  0  0  0  0
    0.0247    4.0714   -1.8434 H   0  0  0  0  0  0  0  0  0  0  0  0
   -0.8506    6.3247   -1.3150 H   0  0  0  0  0  0  0  0  0  0  0  0
   -2.9202    6.5908    0.0078 H   0  0  0  0  0  0  0  0  0  0  0  0
   -4.1474    4.6215    0.8287 H   0  0  0  0  0  0  0  0  0  0  0  0
    1.1240    1.6474   -0.2612 H   0  0  0  0  0  0  0  0  0  0  0  0
    1.7121    1.9055   -1.8781 H   0  0  0  0  0  0  0  0  0  0  0  0
    1.3532   -2.1694   -0.5064 H   0  0  0  0  0  0  0  0  0  0  0  0
    1.8303   -0.4494   -2.3695 H   0  0  0  0  0  0  0  0  0  0  0  0
   -0.3399    1.7586   -2.7026 H   0  0  0  0  0  0  0  0  0  0  0  0
    4.9812   -1.4005   -1.1192 H   0  0  0  0  0  0  0  0  0  0  0  0
    3.5019   -2.0927   -1.7788 H   0  0  0  0  0  0  0  0  0  0  0  0
    4.2778   -0.7209   -2.6165 H   0  0  0  0  0  0  0  0  0  0  0  0
    5.5909    1.4303   -1.4537 H   0  0  0  0  0  0  0  0  0  0  0  0
    8.0286    1.5736   -1.0070 H   0  0  0  0  0  0  0  0  0  0  0  0
    8.9363    0.8236    1.1761 H   0  0  0  0  0  0  0  0  0  0  0  0
    7.4133   -0.0554    2.9249 H   0  0  0  0  0  0  0  0  0  0  0  0
    4.9729   -0.2113    2.4851 H   0  0  0  0  0  0  0  0  0  0  0  0
    2.1883   -1.5932    1.6783 H   0  0  0  0  0  0  0  0  0  0  0  0
    0.8796   -1.0018    2.7269 H   0  0  0  0  0  0  0  0  0  0  0  0
    0.6328   -2.4762    1.7686 H   0  0  0  0  0  0  0  0  0  0  0  0
   -6.9987    1.0642    2.7418 H   0  0  0  0  0  0  0  0  0  0  0  0
   -5.4005   -0.9377    2.8996 H   0  0  0  0  0  0  0  0  0  0  0  0
   -6.3881   -1.0359    1.3929 H   0  0  0  0  0  0  0  0  0  0  0  0
   -1.2199   -2.6419   -2.9925 H   0  0  0  0  0  0  0  0  0  0  0  0
    0.3918   -2.0389   -3.3256 H   0  0  0  0  0  0  0  0  0  0  0  0
    0.1862   -3.3149   -2.1434 H   0  0  0  0  0  0  0  0  0  0  0  0
  6  1  2  0
  2  3  2  0
  4  5  2  0
  1  8  1  0
  2  1  1  0
  7  2  1  0
  7  9  1  0
 10  3  1  0
  4  3  1  0
 12  4  1  0
 10 11  1  0
 14  9  1  0
  9  8  2  0
  8 15  1  0
 13 14  2  0
 16 13  1  0
 15 16  2  0
 11 17  1  0
 12 11  2  0
 20 12  1  0
 17 18  2  0
 18 19  1  0
 19 20  2  0
 10 25  1  0
 25 21  1  0
  7 26  1  0
 26 21  1  0
 25 22  1  0
 26 23  1  0
 22 24  1  0
 23 24  1  0
 24 27  1  0
 27 28  1  0
 27 29  1  0
 28 30  2  0
 28 31  1  0
 32 31  2  0
 36 31  1  0
 32 33  1  0
 33 34  2  0
 34 35  1  0
 35 36  2  0
 23 37  1  0
 37 38  1  0
  5 39  1  0
  6  5  1  0
  6 41  1  0
 39 40  1  0
 40 41  1  0
 39 42  2  0
 26 43  1  6
 13 44  1  0
 14 45  1  0
 15 46  1  0
 16 47  1  0
 17 48  1  0
 18 49  1  0
 19 50  1  0
 20 51  1  0
 22 52  1  0
 22 53  1  0
 23 54  1  1
 24 55  1  6
 25 56  1  6
 29 57  1  0
 29 58  1  0
 29 59  1  0
 32 60  1  0
 33 61  1  0
 34 62  1  0
 35 63  1  0
 36 64  1  0
 38 65  1  0
 38 66  1  0
 38 67  1  0
 40 68  1  0
 41 69  1  0
 41 70  1  0
 43 71  1  0
 43 72  1  0
 43 73  1  0
M  END
$$$$
