
     RDKit          3D

 73 81  0  0  0  0  0  0  0  0999 V2000
   -3.2689   -1.5107   -0.0376 C   0  0  0  0  0  0  0  0  0  0  0  0
   -2.3141   -0.5929   -0.4209 C   0  0  0  0  0  0  0  0  0  0  0  0
   -2.4403    0.9036    0.0036 C   0  0  0  0  0  0  0  0  0  0  0  0
   -3.5050    1.3431    0.7741 C   0  0  0  0  0  0  0  0  0  0  0  0
   -4.4300    0.3466    1.1214 C   0  0  0  0  0  0  0  0  0  0  0  0
   -4.3365   -1.0259    0.7355 C   0  0  0  0  0  0  0  0  0  0  0  0
   -1.3259   -1.2109   -1.1485 N   0  0  0  0  0  0  0  0  0  0  0  0
   -2.8500   -2.7663   -0.5549 C   0  0  0  0  0  0  0  0  0  0  0  0
   -1.6128   -2.5758   -1.2012 C   0  0  0  0  0  0  0  0  0  0  0  0
   -1.6169    1.9474   -0.2864 N   0  0  0  0  0  0  0  0  0  0  0  0
   -2.1222    3.0999    0.2966 C   0  0  0  0  0  0  0  0  0  0  0  0
   -3.3069    2.7454    0.9634 C   0  0  0  0  0  0  0  0  0  0  0  0
   -1.4900   -4.9537   -1.6568 C   0  0  0  0  0  0  0  0  0  0  0  0
   -0.9161   -3.6793   -1.7317 C   0  0  0  0  0  0  0  0  0  0  0  0
   -3.4049   -4.0651   -0.4960 C   0  0  0  0  0  0  0  0  0  0  0  0
   -2.7247   -5.1463   -1.0564 C   0  0  0  0  0  0  0  0  0  0  0  0
   -1.6444    4.4234    0.2791 C   0  0  0  0  0  0  0  0  0  0  0  0
   -2.3818    5.4055    0.9445 C   0  0  0  0  0  0  0  0  0  0  0  0
   -3.5582    5.0827    1.6089 C   0  0  0  0  0  0  0  0  0  0  0  0
   -4.0252    3.7642    1.6275 C   0  0  0  0  0  0  0  0  0  0  0  0
   -0.5653    0.8245   -2.0882 O   0  0  0  0  0  0  0  0  0  0  0  0
    0.9043    2.0063   -0.4574 C   0  0  0  0  0  0  0  0  0  0  0  0
    1.0417   -0.4809   -0.6335 C   0  0  2  0  0  0  0  0  0  0  0  0
    1.8180    0.8405   -0.8420 C   0  0  2  0  0  0  0  0  0  0  0  0
   -0.4528    1.9022   -1.1631 C   0  0  2  0  0  0  0  0  0  0  0  0
   -0.1432   -0.4974   -1.6625 C   0  0  1  0  0  0  0  0  0  0  0  0
    3.1605    0.8567   -0.2045 N   0  0  0  0  0  0  0  0  0  0  0  0
    4.1255    0.0504   -0.8298 C   0  0  0  0  0  0  0  0  0  0  0  0
    3.2632    1.1819    1.2203 C   0  0  0  0  0  0  0  0  0  0  0  0
    3.8804   -0.6319   -1.8224 O   0  0  0  0  0  0  0  0  0  0  0  0
    5.5071    0.0202   -0.3048 C   0  0  0  0  0  0  0  0  0  0  0  0
    6.0803   -1.2112    0.0263 C   0  0  0  0  0  0  0  0  0  0  0  0
    7.3933   -1.2571    0.4956 C   0  0  0  0  0  0  0  0  0  0  0  0
    8.1343   -0.0796    0.6133 C   0  0  0  0  0  0  0  0  0  0  0  0
    7.5691    1.1463    0.2575 C   0  0  0  0  0  0  0  0  0  0  0  0
    6.2550    1.1991   -0.2089 C   0  0  0  0  0  0  0  0  0  0  0  0
    0.5896   -0.4764    0.7387 O   0  0  0  0  0  0  0  0  0  0  0  0
    0.8086   -1.7129    1.4041 C   0  0  0  0  0  0  0  0  0  0  0  0
   -5.6523    0.4843    1.9281 C   0  0  0  0  0  0  0  0  0  0  0  0
   -6.2360   -0.7616    2.0048 N   0  0  0  0  0  0  0  0  0  0  0  0
   -5.5066   -1.7774    1.2993 C   0  0  0  0  0  0  0  0  0  0  0  0
   -6.0967    1.4859    2.4502 O   0  0  0  0  0  0  0  0  0  0  0  0
    0.3594   -1.0568   -3.0137 C   0  0  0  0  0  0  0  0  0  0  0  0
   -0.9554   -5.8041   -2.0758 H   0  0  0  0  0  0  0  0  0  0  0  0
    0.0566   -3.5883   -2.1978 H   0  0  0  0  0  0  0  0  0  0  0  0
   -4.3594   -4.2328   -0.0059 H   0  0  0  0  0  0  0  0  0  0  0  0
   -3.1555   -6.1426   -1.0073 H   0  0  0  0  0  0  0  0  0  0  0  0
   -0.7314    4.6943   -0.2412 H   0  0  0  0  0  0  0  0  0  0  0  0
   -2.0347    6.4361    0.9390 H   0  0  0  0  0  0  0  0  0  0  0  0
   -4.1276    5.8562    2.1190 H   0  0  0  0  0  0  0  0  0  0  0  0
   -4.9477    3.5364    2.1545 H   0  0  0  0  0  0  0  0  0  0  0  0
    0.7544    2.0730    0.6260 H   0  0  0  0  0  0  0  0  0  0  0  0
    1.3887    2.9499   -0.7407 H   0  0  0  0  0  0  0  0  0  0  0  0
    1.6853   -1.3541   -0.7887 H   0  0  0  0  0  0  0  0  0  0  0  0
    2.0322    0.9461   -1.9140 H   0  0  0  0  0  0  0  0  0  0  0  0
   -0.5545    2.7959   -1.7915 H   0  0  0  0  0  0  0  0  0  0  0  0
    4.2966    1.3307    1.5367 H   0  0  0  0  0  0  0  0  0  0  0  0
    2.7173    2.1021    1.4475 H   0  0  0  0  0  0  0  0  0  0  0  0
    2.8609    0.3471    1.8012 H   0  0  0  0  0  0  0  0  0  0  0  0
    5.5109   -2.1299   -0.0872 H   0  0  0  0  0  0  0  0  0  0  0  0
    7.8442   -2.2114    0.7590 H   0  0  0  0  0  0  0  0  0  0  0  0
    9.1594   -0.1186    0.9732 H   0  0  0  0  0  0  0  0  0  0  0  0
    8.1552    2.0583    0.3369 H   0  0  0  0  0  0  0  0  0  0  0  0
    5.8203    2.1513   -0.5034 H   0  0  0  0  0  0  0  0  0  0  0  0
    0.3794   -1.6397    2.4052 H   0  0  0  0  0  0  0  0  0  0  0  0
    1.8798   -1.9070    1.4997 H   0  0  0  0  0  0  0  0  0  0  0  0
    0.3283   -2.5395    0.8795 H   0  0  0  0  0  0  0  0  0  0  0  0
   -7.0999   -0.8980    2.5120 H   0  0  0  0  0  0  0  0  0  0  0  0
   -6.1448   -2.1956    0.5161 H   0  0  0  0  0  0  0  0  0  0  0  0
   -5.1959   -2.5496    2.0090 H   0  0  0  0  0  0  0  0  0  0  0  0
    0.9874   -1.9444   -2.9033 H   0  0  0  0  0  0  0  0  0  0  0  0
    0.9670   -0.3153   -3.5487 H   0  0  0  0  0  0  0  0  0  0  0  0
   -0.4801   -1.2964   -3.6804 H   0  0  0  0  0  0  0  0  0  0  0  0
  6  1  2  0
  2  3  2  0
  4  5  2  0
  1  8  1  0
  2  1  1  0
  7  2  1  0
  7  9  1  0
 10  3  1  0
  4  3  1  0
 12  4  1  0
 10 11  1  0
 14  9  1  0
  9  8  2  0
  8 15  1  0
 13 14  2  0
 16 13  1  0
 15 16  2  0
 11 17  1  0
 12 11  2  0
 20 12  1  0
 17 18  2  0
 18 19  1  0
 19 20  2  0
 10 25  1  0
 25 21  1  0
  7 26  1  0
 26 21  1  0
 25 22  1  0
 26 23  1  0
 22 24  1  0
 23 24  1  0
 24 27  1  0
 27 28  1  0
 27 29  1  0
 28 30  2  0
 28 31  1  0
 32 31  2  0
 36 31  1  0
 32 33  1  0
 33 34  2  0
 34 35  1  0
 35 36  2  0
 23 37  1  0
 37 38  1  0
  5 39  1  0
  6  5  1  0
  6 41  1  0
 39 40  1  0
 40 41  1  0
 39 42  2  0
 26 43  1  6
 13 44  1  0
 14 45  1  0
 15 46  1  0
 16 47  1  0
 17 48  1  0
 18 49  1  0
 19 50  1  0
 20 51  1  0
 22 52  1  0
 22 53  1  0
 23 54  1  1
 24 55  1  6
 25 56  1  6
 29 57  1  0
 29 58  1  0
 29 59  1  0
 32 60  1  0
 33 61  1  0
 34 62  1  0
 35 63  1  0
 36 64  1  0
 38 65  1  0
 38 66  1  0
 38 67  1  0
 40 68  1  0
 41 69  1  0
 41 70  1  0
 43 71  1  0
 43 72  1  0
 43 73  1  0
M  END
$$$$
