
     RDKit          3D

 73 81  0  0  0  0  0  0  0  0999 V2000
   -1.6522   -3.2238   -0.5197 C   0  0  0  0  0  0  0  0  0  0  0  0
   -0.7262   -2.2286   -0.7457 C   0  0  0  0  0  0  0  0  0  0  0  0
   -0.8211   -1.3303   -2.0164 C   0  0  0  0  0  0  0  0  0  0  0  0
   -1.8410   -1.4983   -2.9381 C   0  0  0  0  0  0  0  0  0  0  0  0
   -2.7289   -2.5451   -2.6464 C   0  0  0  0  0  0  0  0  0  0  0  0
   -2.6498   -3.3885   -1.4949 C   0  0  0  0  0  0  0  0  0  0  0  0
    0.1761   -2.1735    0.2878 N   0  0  0  0  0  0  0  0  0  0  0  0
   -1.3182   -3.8045    0.7340 C   0  0  0  0  0  0  0  0  0  0  0  0
   -0.2141   -3.1008    1.2538 C   0  0  0  0  0  0  0  0  0  0  0  0
    0.0006   -0.3206   -2.4123 N   0  0  0  0  0  0  0  0  0  0  0  0
   -0.4938    0.2326   -3.5843 C   0  0  0  0  0  0  0  0  0  0  0  0
   -1.6451   -0.4928   -3.9341 C   0  0  0  0  0  0  0  0  0  0  0  0
   -0.3244   -4.4303    3.2752 C   0  0  0  0  0  0  0  0  0  0  0  0
    0.2690   -3.3958    2.5433 C   0  0  0  0  0  0  0  0  0  0  0  0
   -1.8950   -4.8450    1.4960 C   0  0  0  0  0  0  0  0  0  0  0  0
   -1.3867   -5.1554    2.7574 C   0  0  0  0  0  0  0  0  0  0  0  0
   -0.0174    1.2984   -4.3697 C   0  0  0  0  0  0  0  0  0  0  0  0
   -0.7243    1.6397   -5.5247 C   0  0  0  0  0  0  0  0  0  0  0  0
   -1.8660    0.9400   -5.8931 C   0  0  0  0  0  0  0  0  0  0  0  0
   -2.3312   -0.1217   -5.1107 C   0  0  0  0  0  0  0  0  0  0  0  0
    1.7860   -1.0203   -1.0107 O   0  0  0  0  0  0  0  0  0  0  0  0
    1.2781    1.4167   -1.0863 C   0  0  0  0  0  0  0  0  0  0  0  0
    0.8481    0.1473    1.0269 C   0  0  2  0  0  0  0  0  0  0  0  0
    1.6754    1.2824    0.3854 C   0  0  2  0  0  0  0  0  0  0  0  0
    1.2657    0.0544   -1.7897 C   0  0  2  0  0  0  0  0  0  0  0  0
    1.2771   -1.1945    0.3385 C   0  0  1  0  0  0  0  0  0  0  0  0
    1.6285    2.5488    1.1539 N   0  0  0  0  0  0  0  0  0  0  0  0
    2.4061    2.6009    2.3167 C   0  0  0  0  0  0  0  0  0  0  0  0
    0.5789    3.5229    0.8575 C   0  0  0  0  0  0  0  0  0  0  0  0
    2.9795    1.6126    2.7724 O   0  0  0  0  0  0  0  0  0  0  0  0
    2.5808    3.8918    3.0212 C   0  0  0  0  0  0  0  0  0  0  0  0
    2.4096    3.9353    4.4086 C   0  0  0  0  0  0  0  0  0  0  0  0
    2.6037    5.1361    5.0926 C   0  0  0  0  0  0  0  0  0  0  0  0
    2.9835    6.2835    4.3952 C   0  0  0  0  0  0  0  0  0  0  0  0
    3.1776    6.2342    3.0135 C   0  0  0  0  0  0  0  0  0  0  0  0
    2.9878    5.0356    2.3252 C   0  0  0  0  0  0  0  0  0  0  0  0
   -0.5410    0.4681    0.7891 O   0  0  0  0  0  0  0  0  0  0  0  0
   -1.3435    0.3705    1.9587 C   0  0  0  0  0  0  0  0  0  0  0  0
   -3.8984   -2.9843   -3.4222 C   0  0  0  0  0  0  0  0  0  0  0  0
   -4.4681   -4.0390   -2.7428 N   0  0  0  0  0  0  0  0  0  0  0  0
   -3.7797   -4.3747   -1.5286 C   0  0  0  0  0  0  0  0  0  0  0  0
   -4.3175   -2.5304   -4.4678 O   0  0  0  0  0  0  0  0  0  0  0  0
    2.5427   -1.7492    1.0336 C   0  0  0  0  0  0  0  0  0  0  0  0
    0.0549   -4.6670    4.2670 H   0  0  0  0  0  0  0  0  0  0  0  0
    1.0819   -2.8480    3.0011 H   0  0  0  0  0  0  0  0  0  0  0  0
   -2.7424   -5.4027    1.1098 H   0  0  0  0  0  0  0  0  0  0  0  0
   -1.8347   -5.9567    3.3391 H   0  0  0  0  0  0  0  0  0  0  0  0
    0.8750    1.8534   -4.0991 H   0  0  0  0  0  0  0  0  0  0  0  0
   -0.3753    2.4617   -6.1450 H   0  0  0  0  0  0  0  0  0  0  0  0
   -2.4062    1.2140   -6.7959 H   0  0  0  0  0  0  0  0  0  0  0  0
   -3.2251   -0.6555   -5.4199 H   0  0  0  0  0  0  0  0  0  0  0  0
    1.9994    2.0763   -1.5861 H   0  0  0  0  0  0  0  0  0  0  0  0
    0.3086    1.9129   -1.2077 H   0  0  0  0  0  0  0  0  0  0  0  0
    1.0195    0.0867    2.1080 H   0  0  0  0  0  0  0  0  0  0  0  0
    2.7337    0.9882    0.4089 H   0  0  0  0  0  0  0  0  0  0  0  0
    1.9608    0.1250   -2.6365 H   0  0  0  0  0  0  0  0  0  0  0  0
   -0.3823    3.0124    0.7721 H   0  0  0  0  0  0  0  0  0  0  0  0
    0.4714    4.2718    1.6446 H   0  0  0  0  0  0  0  0  0  0  0  0
    0.8189    4.0221   -0.0852 H   0  0  0  0  0  0  0  0  0  0  0  0
    2.1275    3.0390    4.9537 H   0  0  0  0  0  0  0  0  0  0  0  0
    2.4702    5.1752    6.1707 H   0  0  0  0  0  0  0  0  0  0  0  0
    3.1384    7.2172    4.9312 H   0  0  0  0  0  0  0  0  0  0  0  0
    3.4877    7.1281    2.4778 H   0  0  0  0  0  0  0  0  0  0  0  0
    3.1653    4.9956    1.2540 H   0  0  0  0  0  0  0  0  0  0  0  0
   -1.2880   -0.6295    2.3945 H   0  0  0  0  0  0  0  0  0  0  0  0
   -2.3797    0.5745    1.6790 H   0  0  0  0  0  0  0  0  0  0  0  0
   -1.0306    1.1170    2.6946 H   0  0  0  0  0  0  0  0  0  0  0  0
   -5.2937   -4.4996   -3.1001 H   0  0  0  0  0  0  0  0  0  0  0  0
   -3.4235   -5.4057   -1.5936 H   0  0  0  0  0  0  0  0  0  0  0  0
   -4.4625   -4.2455   -0.6848 H   0  0  0  0  0  0  0  0  0  0  0  0
    3.4371   -1.1900    0.7328 H   0  0  0  0  0  0  0  0  0  0  0  0
    2.4931   -1.6843    2.1218 H   0  0  0  0  0  0  0  0  0  0  0  0
    2.7293   -2.7914    0.7490 H   0  0  0  0  0  0  0  0  0  0  0  0
  6  1  2  0
  2  3  2  0
  4  5  2  0
  1  8  1  0
  2  1  1  0
  7  2  1  0
  7  9  1  0
 10  3  1  0
  4  3  1  0
 12  4  1  0
 10 11  1  0
 14  9  1  0
  9  8  2  0
  8 15  1  0
 13 14  2  0
 16 13  1  0
 15 16  2  0
 11 17  1  0
 12 11  2  0
 20 12  1  0
 17 18  2  0
 18 19  1  0
 19 20  2  0
 10 25  1  0
 25 21  1  0
  7 26  1  0
 26 21  1  0
 25 22  1  0
 26 23  1  0
 22 24  1  0
 23 24  1  0
 24 27  1  0
 27 28  1  0
 27 29  1  0
 28 30  2  0
 28 31  1  0
 32 31  2  0
 36 31  1  0
 32 33  1  0
 33 34  2  0
 34 35  1  0
 35 36  2  0
 23 37  1  0
 37 38  1  0
  5 39  1  0
  6  5  1  0
  6 41  1  0
 39 40  1  0
 40 41  1  0
 39 42  2  0
 26 43  1  1
 13 44  1  0
 14 45  1  0
 15 46  1  0
 16 47  1  0
 17 48  1  0
 18 49  1  0
 19 50  1  0
 20 51  1  0
 22 52  1  0
 22 53  1  0
 23 54  1  1
 24 55  1  6
 25 56  1  6
 29 57  1  0
 29 58  1  0
 29 59  1  0
 32 60  1  0
 33 61  1  0
 34 62  1  0
 35 63  1  0
 36 64  1  0
 38 65  1  0
 38 66  1  0
 38 67  1  0
 40 68  1  0
 41 69  1  0
 41 70  1  0
 43 71  1  0
 43 72  1  0
 43 73  1  0
M  END
$$$$
