
     RDKit          3D

 27 29  0  0  0  0  0  0  0  0999 V2000
   -0.5609   -1.3651   -0.0300 C   0  0  0  0  0  0  0  0  0  0  0  0
   -0.7083    0.4983    1.4421 C   0  0  0  0  0  0  0  0  0  0  0  0
    0.2237   -0.6435    1.0604 C   0  0  0  0  0  0  0  0  0  0  0  0
   -1.8198   -0.6565   -0.2512 C   0  0  0  0  0  0  0  0  0  0  0  0
   -1.9071    0.4272    0.6083 C   0  0  0  0  0  0  0  0  0  0  0  0
   -0.2534   -2.3799   -0.6308 O   0  0  0  0  0  0  0  0  0  0  0  0
   -0.5421    1.3524    2.2953 O   0  0  0  0  0  0  0  0  0  0  0  0
    1.6162   -0.2472    0.6126 C   0  0  0  0  0  0  0  0  0  0  0  0
   -2.8275   -0.9536   -1.1508 C   0  0  0  0  0  0  0  0  0  0  0  0
   -3.0062    1.2671    0.6096 C   0  0  0  0  0  0  0  0  0  0  0  0
    1.9850    1.0768    0.3296 C   0  0  0  0  0  0  0  0  0  0  0  0
    2.5858   -1.2535    0.4551 C   0  0  0  0  0  0  0  0  0  0  0  0
   -3.9471   -0.1165   -1.1665 C   0  0  0  0  0  0  0  0  0  0  0  0
   -4.0358    0.9851   -0.2931 C   0  0  0  0  0  0  0  0  0  0  0  0
    3.2824    1.3830   -0.0909 C   0  0  0  0  0  0  0  0  0  0  0  0
    3.8805   -0.9464    0.0327 C   0  0  0  0  0  0  0  0  0  0  0  0
    4.2290    0.3729   -0.2395 C   0  0  0  0  0  0  0  0  0  0  0  0
    0.2794   -1.3075    1.9326 H   0  0  0  0  0  0  0  0  0  0  0  0
   -2.7489   -1.8058   -1.8194 H   0  0  0  0  0  0  0  0  0  0  0  0
   -3.0648    2.1135    1.2874 H   0  0  0  0  0  0  0  0  0  0  0  0
    1.2810    1.8987    0.4400 H   0  0  0  0  0  0  0  0  0  0  0  0
    2.3326   -2.2949    0.6507 H   0  0  0  0  0  0  0  0  0  0  0  0
   -4.7610   -0.3172   -1.8614 H   0  0  0  0  0  0  0  0  0  0  0  0
   -4.9174    1.6234   -0.3228 H   0  0  0  0  0  0  0  0  0  0  0  0
    3.5540    2.4148   -0.2995 H   0  0  0  0  0  0  0  0  0  0  0  0
    4.6142   -1.7393   -0.0867 H   0  0  0  0  0  0  0  0  0  0  0  0
    5.2366    0.6138   -0.5672 H   0  0  0  0  0  0  0  0  0  0  0  0
  2  3  1  0
  3  1  1  0
  4  1  1  0
  5  4  2  0
  6  1  2  0
  7  2  2  0
  8  3  1  0
  9  4  1  0
 10  5  1  0
 11  8  2  0
 12  8  1  0
 13  9  2  0
 14 13  1  0
 15 11  1  0
 16 12  2  0
 17 16  1  0
  5  2  1  0
 14 10  2  0
 17 15  2  0
  3 18  1  0
  9 19  1  0
 10 20  1  0
 11 21  1  0
 12 22  1  0
 13 23  1  0
 14 24  1  0
 15 25  1  0
 16 26  1  0
 17 27  1  0
M  END
$$$$
