
     RDKit          3D

 17 19  0  0  0  0  0  0  0  0999 V2000
   -0.4275   -0.8942    1.2481 C   0  0  0  0  0  0  0  0  0  0  0  0
   -0.4148   -1.0507   -1.0896 C   0  0  0  0  0  0  0  0  0  0  0  0
    0.4511   -1.2161    0.1028 C   0  0  0  0  0  0  0  0  0  0  0  0
   -1.5789   -0.1808    0.7150 C   0  0  0  0  0  0  0  0  0  0  0  0
   -1.5668   -0.2760   -0.6611 C   0  0  0  0  0  0  0  0  0  0  0  0
   -0.2492   -1.1684    2.4722 O   0  0  0  0  0  0  0  0  0  0  0  0
   -0.1341   -1.5238   -2.2261 O   0  0  0  0  0  0  0  0  0  0  0  0
    1.5926   -0.2629    0.0123 C   0  0  0  0  0  0  0  0  0  0  0  0
   -2.5884    0.5145    1.3460 C   0  0  0  0  0  0  0  0  0  0  0  0
   -2.5608    0.3240   -1.3732 C   0  0  0  0  0  0  0  0  0  0  0  0
    1.4128    1.0816   -0.1434 C   0  0  0  0  0  0  0  0  0  0  0  0
    2.8647   -0.7921    0.0924 C   0  0  0  0  0  0  0  0  0  0  0  0
   -3.5807    1.1112    0.6015 C   0  0  0  0  0  0  0  0  0  0  0  0
   -3.5617    1.0129   -0.7538 C   0  0  0  0  0  0  0  0  0  0  0  0
    2.5437    1.8889   -0.2175 C   0  0  0  0  0  0  0  0  0  0  0  0
    3.9674    0.0345    0.0157 C   0  0  0  0  0  0  0  0  0  0  0  0
    3.8305    1.3975   -0.1414 C   0  0  0  0  0  0  0  0  0  0  0  0
  2  3  1  0
  3  1  1  0
  4  1  1  0
  5  4  2  0
  6  1  2  0
  7  2  2  0
  8  3  1  0
  9  4  1  0
 10  5  1  0
 11  8  2  0
 12  8  1  0
 13  9  2  0
 14 13  1  0
 15 11  1  0
 16 12  2  0
 17 16  1  0
  5  2  1  0
 14 10  2  0
 17 15  2  0
M  END
