
     RDKit          3D

 28 27  0  0  0  0  0  0  0  0999 V2000
    0.6851    0.0000    0.0000 Cl  0  0  0  0  0  0  0  0  0  0  0  0
   -1.4520   -0.4925    0.0741 C   0  0  0  0  0  0  0  0  0  0  0  0
   -0.3391   -0.7302   -0.9191 C   0  0  0  0  0  0  0  0  0  0  0  0
   -1.1564   -0.9828    1.3885 N   0  0  0  0  0  0  0  0  0  0  0  0
    0.9245   -0.0652   -0.5042 C   0  0  0  0  0  0  0  0  0  0  0  0
   -2.7085   -1.1948   -0.3947 C   0  0  0  0  0  0  0  0  0  0  0  0
   -1.8061    0.9825    0.1546 C   0  0  0  0  0  0  0  0  0  0  0  0
    1.7930   -0.8154    0.2945 C   0  0  0  0  0  0  0  0  0  0  0  0
    1.2445    1.2288   -0.8778 C   0  0  0  0  0  0  0  0  0  0  0  0
    3.0021   -0.2609    0.7263 C   0  0  0  0  0  0  0  0  0  0  0  0
    2.4483    1.7567   -0.4375 C   0  0  0  0  0  0  0  0  0  0  0  0
    3.3271    1.0427    0.3514 C   0  0  0  0  0  0  0  0  0  0  0  0
   -0.6851    0.0000    0.0000 H   0  0  0  0  0  0  0  0  0  0  0  0
   -0.7043   -0.4084   -1.9101 H   0  0  0  0  0  0  0  0  0  0  0  0
   -0.2049   -1.8323   -1.0026 H   0  0  0  0  0  0  0  0  0  0  0  0
   -0.2337   -0.7185    1.7543 H   0  0  0  0  0  0  0  0  0  0  0  0
   -1.9526   -0.7752    1.9960 H   0  0  0  0  0  0  0  0  0  0  0  0
   -2.6588   -2.2952   -0.2058 H   0  0  0  0  0  0  0  0  0  0  0  0
   -2.9176   -0.9756   -1.4628 H   0  0  0  0  0  0  0  0  0  0  0  0
   -3.5969   -0.8366    0.1677 H   0  0  0  0  0  0  0  0  0  0  0  0
   -1.9478    1.3815   -0.8843 H   0  0  0  0  0  0  0  0  0  0  0  0
   -2.8045    1.0547    0.6330 H   0  0  0  0  0  0  0  0  0  0  0  0
   -1.0372    1.5990    0.6329 H   0  0  0  0  0  0  0  0  0  0  0  0
    1.5399   -1.8420    0.5913 H   0  0  0  0  0  0  0  0  0  0  0  0
    0.5505    1.7935   -1.5011 H   0  0  0  0  0  0  0  0  0  0  0  0
    3.6867   -0.8511    1.3552 H   0  0  0  0  0  0  0  0  0  0  0  0
    2.7266    2.7749   -0.7169 H   0  0  0  0  0  0  0  0  0  0  0  0
    4.2772    1.4624    0.6975 H   0  0  0  0  0  0  0  0  0  0  0  0
  3  2  1  0
  4  2  1  0
  5  3  1  0
  6  2  1  0
  7  2  1  0
  8  5  2  0
  9  5  1  0
 10  8  1  0
 11  9  2  0
 12 10  2  0
 11 12  1  0
  1 13  1  0
  3 14  1  0
  3 15  1  0
  4 16  1  0
  4 17  1  0
  6 18  1  0
  6 19  1  0
  6 20  1  0
  7 21  1  0
  7 22  1  0
  7 23  1  0
  8 24  1  0
  9 25  1  0
 10 26  1  0
 11 27  1  0
 12 28  1  0
M  END
$$$$
