
     RDKit          3D

 12 11  0  0  0  0  0  0  0  0999 V2000
    0.0000    0.0000    0.0000 Cl  0  0  0  0  0  0  0  0  0  0  0  0
   -1.8654    0.3891    0.6570 C   0  0  0  0  0  0  0  0  0  0  0  0
   -1.1438    0.5446   -0.6639 C   0  0  0  0  0  0  0  0  0  0  0  0
   -1.2874    1.1650    1.7274 N   0  0  0  0  0  0  0  0  0  0  0  0
    0.2604    0.1311   -0.5949 C   0  0  0  0  0  0  0  0  0  0  0  0
   -1.8748   -1.0935    0.9745 C   0  0  0  0  0  0  0  0  0  0  0  0
   -3.3118    0.8029    0.4972 C   0  0  0  0  0  0  0  0  0  0  0  0
    1.2812    1.0010   -0.2665 C   0  0  0  0  0  0  0  0  0  0  0  0
    0.5496   -1.2053   -0.8783 C   0  0  0  0  0  0  0  0  0  0  0  0
    2.5981    0.5891   -0.2075 C   0  0  0  0  0  0  0  0  0  0  0  0
    1.8903   -1.5935   -0.8109 C   0  0  0  0  0  0  0  0  0  0  0  0
    2.9036   -0.7306   -0.4850 C   0  0  0  0  0  0  0  0  0  0  0  0
  3  2  1  0
  4  2  1  0
  5  3  1  0
  6  2  1  0
  7  2  1  0
  8  5  2  0
  9  5  1  0
 10  8  1  0
 11  9  2  0
 12 10  2  0
 11 12  1  0
M  END
