
     RDKit          3D

 28 27  0  0  0  0  0  0  0  0999 V2000
    0.6894    0.0000    0.0000 Cl  0  0  0  0  0  0  0  0  0  0  0  0
   -1.4970    0.1773    0.1558 C   0  0  0  0  0  0  0  0  0  0  0  0
   -0.3858   -0.2933    1.0242 C   0  0  0  0  0  0  0  0  0  0  0  0
   -1.2978    1.5653   -0.2526 N   0  0  0  0  0  0  0  0  0  0  0  0
    0.9599   -0.2599    0.4281 C   0  0  0  0  0  0  0  0  0  0  0  0
   -1.8217   -0.6972   -1.0078 C   0  0  0  0  0  0  0  0  0  0  0  0
   -2.7461    0.1899    1.0466 C   0  0  0  0  0  0  0  0  0  0  0  0
    1.6930    0.9209    0.6012 C   0  0  0  0  0  0  0  0  0  0  0  0
    1.5174   -1.3157   -0.2770 C   0  0  0  0  0  0  0  0  0  0  0  0
    2.9637    0.9933    0.0558 C   0  0  0  0  0  0  0  0  0  0  0  0
    2.7944   -1.2414   -0.8244 C   0  0  0  0  0  0  0  0  0  0  0  0
    3.5089   -0.0728   -0.6480 C   0  0  0  0  0  0  0  0  0  0  0  0
   -0.6894    0.0000    0.0000 H   0  0  0  0  0  0  0  0  0  0  0  0
   -0.4053    0.3069    1.9582 H   0  0  0  0  0  0  0  0  0  0  0  0
   -0.6439   -1.3487    1.3227 H   0  0  0  0  0  0  0  0  0  0  0  0
   -2.1145    1.8875   -0.8152 H   0  0  0  0  0  0  0  0  0  0  0  0
   -1.1234    2.1334    0.6039 H   0  0  0  0  0  0  0  0  0  0  0  0
   -0.9931   -1.2580   -1.4417 H   0  0  0  0  0  0  0  0  0  0  0  0
   -2.6237   -1.4569   -0.7889 H   0  0  0  0  0  0  0  0  0  0  0  0
   -2.2883   -0.0231   -1.7803 H   0  0  0  0  0  0  0  0  0  0  0  0
   -2.4094    0.5672    2.0342 H   0  0  0  0  0  0  0  0  0  0  0  0
   -3.5432    0.8220    0.6188 H   0  0  0  0  0  0  0  0  0  0  0  0
   -3.0809   -0.8597    1.2318 H   0  0  0  0  0  0  0  0  0  0  0  0
    1.3151    1.7632    1.1333 H   0  0  0  0  0  0  0  0  0  0  0  0
    0.9445   -2.2235   -0.4058 H   0  0  0  0  0  0  0  0  0  0  0  0
    3.5868    1.8653    0.1466 H   0  0  0  0  0  0  0  0  0  0  0  0
    3.1939   -2.0961   -1.3716 H   0  0  0  0  0  0  0  0  0  0  0  0
    4.4966   -0.0460   -1.0846 H   0  0  0  0  0  0  0  0  0  0  0  0
  3  2  1  0
  4  2  1  0
  5  3  1  0
  6  2  1  0
  7  2  1  0
  8  5  2  0
  9  5  1  0
 10  8  1  0
 11  9  2  0
 12 10  2  0
 11 12  1  0
  1 13  1  0
  3 14  1  0
  3 15  1  0
  4 16  1  0
  4 17  1  0
  6 18  1  0
  6 19  1  0
  6 20  1  0
  7 21  1  0
  7 22  1  0
  7 23  1  0
  8 24  1  0
  9 25  1  0
 10 26  1  0
 11 27  1  0
 12 28  1  0
M  END
$$$$
