
     RDKit          3D

 28 27  0  0  0  0  0  0  0  0999 V2000
    0.6908    0.0000    0.0000 Cl  0  0  0  0  0  0  0  0  0  0  0  0
   -1.6270   -0.1704    0.2499 C   0  0  0  0  0  0  0  0  0  0  0  0
   -0.5339   -1.1699   -0.0337 C   0  0  0  0  0  0  0  0  0  0  0  0
   -2.8967   -0.8578    0.3885 N   0  0  0  0  0  0  0  0  0  0  0  0
    0.8018   -0.5360   -0.1887 C   0  0  0  0  0  0  0  0  0  0  0  0
   -1.3019    0.5771    1.5138 C   0  0  0  0  0  0  0  0  0  0  0  0
   -1.7800    0.7838   -0.9322 C   0  0  0  0  0  0  0  0  0  0  0  0
    1.6085   -0.3672    0.9187 C   0  0  0  0  0  0  0  0  0  0  0  0
    1.2705   -0.1036   -1.4221 C   0  0  0  0  0  0  0  0  0  0  0  0
    2.8597    0.2106    0.8634 C   0  0  0  0  0  0  0  0  0  0  0  0
    2.5299    0.4760   -1.4667 C   0  0  0  0  0  0  0  0  0  0  0  0
    3.3123    0.6329   -0.3542 C   0  0  0  0  0  0  0  0  0  0  0  0
   -0.6908    0.0000    0.0000 H   0  0  0  0  0  0  0  0  0  0  0  0
   -0.7962   -1.7979   -0.9218 H   0  0  0  0  0  0  0  0  0  0  0  0
   -0.4890   -1.8289    0.8777 H   0  0  0  0  0  0  0  0  0  0  0  0
   -3.4808   -0.8090   -0.4675 H   0  0  0  0  0  0  0  0  0  0  0  0
   -2.7437   -1.8352    0.7097 H   0  0  0  0  0  0  0  0  0  0  0  0
   -1.3507   -0.1206    2.3575 H   0  0  0  0  0  0  0  0  0  0  0  0
   -2.0738    1.3772    1.6825 H   0  0  0  0  0  0  0  0  0  0  0  0
   -0.3522    1.1150    1.4199 H   0  0  0  0  0  0  0  0  0  0  0  0
   -2.8170    1.2305   -0.9068 H   0  0  0  0  0  0  0  0  0  0  0  0
   -1.6768    0.2731   -1.8905 H   0  0  0  0  0  0  0  0  0  0  0  0
   -1.0398    1.6099   -0.8822 H   0  0  0  0  0  0  0  0  0  0  0  0
    1.2531   -0.7032    1.8994 H   0  0  0  0  0  0  0  0  0  0  0  0
    0.6506   -0.2271   -2.3086 H   0  0  0  0  0  0  0  0  0  0  0  0
    3.4699    0.3277    1.7606 H   0  0  0  0  0  0  0  0  0  0  0  0
    2.9037    0.8164   -2.4252 H   0  0  0  0  0  0  0  0  0  0  0  0
    4.2995    1.0965   -0.4416 H   0  0  0  0  0  0  0  0  0  0  0  0
  3  2  1  0
  4  2  1  0
  5  3  1  0
  6  2  1  0
  7  2  1  0
  8  5  2  0
  9  5  1  0
 10  8  1  0
 11  9  2  0
 12 10  2  0
 11 12  1  0
  1 13  1  0
  3 14  1  0
  3 15  1  0
  4 16  1  0
  4 17  1  0
  6 18  1  0
  6 19  1  0
  6 20  1  0
  7 21  1  0
  7 22  1  0
  7 23  1  0
  8 24  1  0
  9 25  1  0
 10 26  1  0
 11 27  1  0
 12 28  1  0
M  END
$$$$
