
     RDKit          3D

 28 27  0  0  0  0  0  0  0  0999 V2000
    0.6883    0.0000    0.0000 Cl  0  0  0  0  0  0  0  0  0  0  0  0
   -1.5656    0.2453    0.1400 C   0  0  0  0  0  0  0  0  0  0  0  0
   -0.4503   -0.2445    0.9703 C   0  0  0  0  0  0  0  0  0  0  0  0
   -2.7226    0.1777    1.0518 N   0  0  0  0  0  0  0  0  0  0  0  0
    0.8869   -0.3379    0.4448 C   0  0  0  0  0  0  0  0  0  0  0  0
   -1.4747    1.6662   -0.3125 C   0  0  0  0  0  0  0  0  0  0  0  0
   -1.9837   -0.6979   -0.9646 C   0  0  0  0  0  0  0  0  0  0  0  0
    1.3247   -1.4821   -0.1692 C   0  0  0  0  0  0  0  0  0  0  0  0
    1.7744    0.7413    0.5490 C   0  0  0  0  0  0  0  0  0  0  0  0
    2.5978   -1.6025   -0.6820 C   0  0  0  0  0  0  0  0  0  0  0  0
    3.0638    0.6617    0.0465 C   0  0  0  0  0  0  0  0  0  0  0  0
    3.4418   -0.5344   -0.5663 C   0  0  0  0  0  0  0  0  0  0  0  0
   -0.6883    0.0000    0.0000 H   0  0  0  0  0  0  0  0  0  0  0  0
   -0.4092    0.3688    1.9000 H   0  0  0  0  0  0  0  0  0  0  0  0
   -0.7463   -1.2599    1.3418 H   0  0  0  0  0  0  0  0  0  0  0  0
   -2.5363    0.6401    1.9449 H   0  0  0  0  0  0  0  0  0  0  0  0
   -3.6074    0.3952    0.5824 H   0  0  0  0  0  0  0  0  0  0  0  0
   -2.4048    2.2662   -0.0786 H   0  0  0  0  0  0  0  0  0  0  0  0
   -1.4489    1.7426   -1.4404 H   0  0  0  0  0  0  0  0  0  0  0  0
   -0.6677    2.2482    0.1692 H   0  0  0  0  0  0  0  0  0  0  0  0
   -1.2753   -0.7939   -1.7920 H   0  0  0  0  0  0  0  0  0  0  0  0
   -2.2048   -1.6820   -0.5152 H   0  0  0  0  0  0  0  0  0  0  0  0
   -2.9394   -0.2993   -1.3781 H   0  0  0  0  0  0  0  0  0  0  0  0
    0.6707   -2.3214   -0.2635 H   0  0  0  0  0  0  0  0  0  0  0  0
    1.5014    1.6677    1.0165 H   0  0  0  0  0  0  0  0  0  0  0  0
    2.9462   -2.4978   -1.1646 H   0  0  0  0  0  0  0  0  0  0  0  0
    3.7614    1.4832    0.1177 H   0  0  0  0  0  0  0  0  0  0  0  0
    4.4680   -0.5507   -0.9477 H   0  0  0  0  0  0  0  0  0  0  0  0
  3  2  1  0
  4  2  1  0
  5  3  1  0
  6  2  1  0
  7  2  1  0
  8  5  2  0
  9  5  1  0
 10  8  1  0
 11  9  2  0
 12 10  2  0
 11 12  1  0
  1 13  1  0
  3 14  1  0
  3 15  1  0
  4 16  1  0
  4 17  1  0
  6 18  1  0
  6 19  1  0
  6 20  1  0
  7 21  1  0
  7 22  1  0
  7 23  1  0
  8 24  1  0
  9 25  1  0
 10 26  1  0
 11 27  1  0
 12 28  1  0
M  END
$$$$
