
     RDKit          3D

116121  0  0  0  0  0  0  0  0999 V2000
   -2.0504    0.1857    0.0200 C   0  0  0  0  0  0  0  0  0  0  0  0
   -2.5342    1.3929    0.1400 N   0  0  0  0  0  0  0  0  0  0  0  0
   -2.8727   -1.0179   -0.3459 C   0  0  0  0  0  0  0  0  0  0  0  0
   -3.9337    0.3782   -2.5242 S   0  0  0  0  0  0  0  0  0  0  0  0
   -0.6850   -0.0317    0.2637 N   0  0  0  0  0  0  0  0  0  0  0  0
   -3.6826   -1.0521   -1.4877 C   0  0  0  0  0  0  0  0  0  0  0  0
   -3.8758    1.7490   -0.0839 C   0  0  0  0  0  0  0  0  0  0  0  0
   -4.6009    1.4452   -1.2514 C   0  0  0  0  0  0  0  0  0  0  0  0
    2.2063    0.5936   -0.3790 N   0  0  0  0  0  0  0  0  0  0  0  0
    0.0912   -0.7674   -0.7639 C   0  0  0  0  0  0  0  0  0  0  0  0
    0.0996    0.9991    0.9797 C   0  0  0  0  0  0  0  0  0  0  0  0
    1.6025   -0.7590   -0.4574 C   0  0  0  0  0  0  0  0  0  0  0  0
    1.2030    1.5865    0.0804 C   0  0  0  0  0  0  0  0  0  0  0  0
   -2.7552   -2.1551    0.4684 C   0  0  0  0  0  0  0  0  0  0  0  0
   -4.3555   -2.2382   -1.8115 C   0  0  0  0  0  0  0  0  0  0  0  0
    3.3949    0.5979    0.4924 C   0  0  0  0  0  0  0  0  0  0  0  0
    8.1395    0.4028    1.9657 O   0  0  0  0  0  0  0  0  0  0  0  0
   -4.4848    2.5517    0.8921 C   0  0  0  0  0  0  0  0  0  0  0  0
   -5.9035    1.9377   -1.4175 C   0  0  0  0  0  0  0  0  0  0  0  0
    5.6401   -0.1987    0.8863 O   0  0  0  0  0  0  0  0  0  0  0  0
    7.8479   -0.9051    1.4830 C   0  0  0  0  0  0  0  0  0  0  0  0
    4.5801   -0.1974   -0.0757 C   0  0  0  0  0  0  0  0  0  0  0  0
    6.8204   -0.8224    0.3597 C   0  0  0  0  0  0  0  0  0  0  0  0
   -3.4354   -3.3271    0.1418 C   0  0  0  0  0  0  0  0  0  0  0  0
   -4.2299   -3.3702   -1.0014 C   0  0  0  0  0  0  0  0  0  0  0  0
   -6.4930    2.7299   -0.4336 C   0  0  0  0  0  0  0  0  0  0  0  0
   -5.7849    3.0313    0.7256 C   0  0  0  0  0  0  0  0  0  0  0  0
   -2.0825   -0.1081    0.0198 C   0  0  0  0  0  0  0  0  0  0  0  0
   -2.6909   -1.1902   -0.3860 N   0  0  0  0  0  0  0  0  0  0  0  0
   -2.7971    1.1264    0.4859 C   0  0  0  0  0  0  0  0  0  0  0  0
   -4.3328   -0.4409    2.2235 S   0  0  0  0  0  0  0  0  0  0  0  0
   -0.6786   -0.0697   -0.0104 N   0  0  0  0  0  0  0  0  0  0  0  0
   -3.7544    1.0893    1.5077 C   0  0  0  0  0  0  0  0  0  0  0  0
   -4.0851   -1.3618   -0.4069 C   0  0  0  0  0  0  0  0  0  0  0  0
   -4.9340   -1.1614    0.6986 C   0  0  0  0  0  0  0  0  0  0  0  0
    2.2481   -0.3651    0.2388 N   0  0  0  0  0  0  0  0  0  0  0  0
    0.0452    0.3981    1.1912 C   0  0  0  0  0  0  0  0  0  0  0  0
    0.0348   -1.1956   -0.6511 C   0  0  0  0  0  0  0  0  0  0  0  0
    1.5031    0.7599    0.8479 C   0  0  0  0  0  0  0  0  0  0  0  0
    1.5049   -0.8322   -0.9526 C   0  0  0  0  0  0  0  0  0  0  0  0
   -2.4222    2.3513   -0.0877 C   0  0  0  0  0  0  0  0  0  0  0  0
   -4.3095    2.2915    1.9664 C   0  0  0  0  0  0  0  0  0  0  0  0
    3.6179    0.0626   -0.0919 C   0  0  0  0  0  0  0  0  0  0  0  0
    7.8721    1.2797   -0.1037 O   0  0  0  0  0  0  0  0  0  0  0  0
   -4.6367   -1.8755   -1.5869 C   0  0  0  0  0  0  0  0  0  0  0  0
   -6.3008   -1.4682    0.6034 C   0  0  0  0  0  0  0  0  0  0  0  0
    5.8817   -0.6018   -0.7411 O   0  0  0  0  0  0  0  0  0  0  0  0
    8.0270   -0.1060    0.2019 C   0  0  0  0  0  0  0  0  0  0  0  0
    4.5400   -1.0728   -0.5727 C   0  0  0  0  0  0  0  0  0  0  0  0
    6.6577   -0.7257    0.4582 C   0  0  0  0  0  0  0  0  0  0  0  0
   -2.9904    3.5395    0.3701 C   0  0  0  0  0  0  0  0  0  0  0  0
   -3.9268    3.5100    1.4012 C   0  0  0  0  0  0  0  0  0  0  0  0
   -6.8325   -1.9674   -0.5851 C   0  0  0  0  0  0  0  0  0  0  0  0
   -6.0007   -2.1659   -1.6843 C   0  0  0  0  0  0  0  0  0  0  0  0
   -1.9007   -0.1264   -0.2432 C   0  0  0  0  0  0  0  0  0  0  0  0
    1.9018    0.1345    0.1290 C   0  0  0  0  0  0  0  0  0  0  0  0
   -0.4591   -0.3021   -0.4354 C   0  0  0  0  0  0  0  0  0  0  0  0
    0.4598    0.3119    0.3207 C   0  0  0  0  0  0  0  0  0  0  0  0
   -2.7540   -0.6554   -0.9306 O   0  0  0  0  0  0  0  0  0  0  0  0
    2.7545    0.6930    0.7938 O   0  0  0  0  0  0  0  0  0  0  0  0
   -2.2206    0.6788    0.7795 O   0  0  0  0  0  0  0  0  0  0  0  0
    2.2205   -0.7139   -0.8581 O   0  0  0  0  0  0  0  0  0  0  0  0
   -0.0837   -0.3172   -1.7498 H   0  0  0  0  0  0  0  0  0  0  0  0
   -0.2410   -1.8104   -0.8096 H   0  0  0  0  0  0  0  0  0  0  0  0
   -0.5282    1.8100    1.3625 H   0  0  0  0  0  0  0  0  0  0  0  0
    0.5437    0.5272    1.8642 H   0  0  0  0  0  0  0  0  0  0  0  0
    1.7485   -1.2968    0.4913 H   0  0  0  0  0  0  0  0  0  0  0  0
    2.1233   -1.3293   -1.2367 H   0  0  0  0  0  0  0  0  0  0  0  0
    0.7363    2.0096   -0.8188 H   0  0  0  0  0  0  0  0  0  0  0  0
    1.6841    2.4305    0.5878 H   0  0  0  0  0  0  0  0  0  0  0  0
   -2.1306   -2.1214    1.3582 H   0  0  0  0  0  0  0  0  0  0  0  0
   -4.9923   -2.2860   -2.6921 H   0  0  0  0  0  0  0  0  0  0  0  0
    3.1491    0.2366    1.5014 H   0  0  0  0  0  0  0  0  0  0  0  0
    3.7523    1.6272    0.6322 H   0  0  0  0  0  0  0  0  0  0  0  0
    7.2705    0.8325    2.0776 H   0  0  0  0  0  0  0  0  0  0  0  0
   -3.9226    2.8130    1.7855 H   0  0  0  0  0  0  0  0  0  0  0  0
   -6.4636    1.7035   -2.3184 H   0  0  0  0  0  0  0  0  0  0  0  0
    8.7779   -1.3634    1.1338 H   0  0  0  0  0  0  0  0  0  0  0  0
    7.4581   -1.4860    2.3239 H   0  0  0  0  0  0  0  0  0  0  0  0
    4.2937   -1.2356   -0.2765 H   0  0  0  0  0  0  0  0  0  0  0  0
    4.9230    0.2664   -1.0091 H   0  0  0  0  0  0  0  0  0  0  0  0
    7.2065   -0.2001   -0.4514 H   0  0  0  0  0  0  0  0  0  0  0  0
    6.5838   -1.8235   -0.0111 H   0  0  0  0  0  0  0  0  0  0  0  0
   -3.3447   -4.2015    0.7795 H   0  0  0  0  0  0  0  0  0  0  0  0
   -4.7571   -4.2867   -1.2620 H   0  0  0  0  0  0  0  0  0  0  0  0
   -7.5021    3.1086   -0.5677 H   0  0  0  0  0  0  0  0  0  0  0  0
   -6.2328    3.6538    1.4945 H   0  0  0  0  0  0  0  0  0  0  0  0
    0.0265   -0.3881    1.9557 H   0  0  0  0  0  0  0  0  0  0  0  0
   -0.4274    1.2842    1.6257 H   0  0  0  0  0  0  0  0  0  0  0  0
   -0.0087   -2.0727    0.0047 H   0  0  0  0  0  0  0  0  0  0  0  0
   -0.4410   -1.4601   -1.6032 H   0  0  0  0  0  0  0  0  0  0  0  0
    2.0011    1.0712    1.7750 H   0  0  0  0  0  0  0  0  0  0  0  0
    1.5113    1.6239    0.1698 H   0  0  0  0  0  0  0  0  0  0  0  0
    1.9861   -1.7259   -1.3624 H   0  0  0  0  0  0  0  0  0  0  0  0
    1.5192   -0.0628   -1.7342 H   0  0  0  0  0  0  0  0  0  0  0  0
   -1.6808    2.3813   -0.8825 H   0  0  0  0  0  0  0  0  0  0  0  0
   -5.0545    2.2864    2.7590 H   0  0  0  0  0  0  0  0  0  0  0  0
    4.0741    0.5081    0.8008 H   0  0  0  0  0  0  0  0  0  0  0  0
    3.6078    0.8571   -0.8513 H   0  0  0  0  0  0  0  0  0  0  0  0
    7.2095    1.3091   -0.8199 H   0  0  0  0  0  0  0  0  0  0  0  0
   -3.9875   -2.0598   -2.4390 H   0  0  0  0  0  0  0  0  0  0  0  0
   -6.9604   -1.3107    1.4530 H   0  0  0  0  0  0  0  0  0  0  0  0
    8.5240   -0.5794   -0.6506 H   0  0  0  0  0  0  0  0  0  0  0  0
    8.6682   -0.1950    1.0820 H   0  0  0  0  0  0  0  0  0  0  0  0
    4.5133   -1.9276    0.1134 H   0  0  0  0  0  0  0  0  0  0  0  0
    4.2106   -1.4267   -1.5552 H   0  0  0  0  0  0  0  0  0  0  0  0
    6.7637   -1.7836    0.7201 H   0  0  0  0  0  0  0  0  0  0  0  0
    6.1586   -0.1924    1.2719 H   0  0  0  0  0  0  0  0  0  0  0  0
   -2.6997    4.4879   -0.0728 H   0  0  0  0  0  0  0  0  0  0  0  0
   -4.3739    4.4353    1.7625 H   0  0  0  0  0  0  0  0  0  0  0  0
   -7.8922   -2.2003   -0.6512 H   0  0  0  0  0  0  0  0  0  0  0  0
   -6.4050   -2.5593   -2.6140 H   0  0  0  0  0  0  0  0  0  0  0  0
   -0.1931   -0.9691   -1.2463 H   0  0  0  0  0  0  0  0  0  0  0  0
    0.1911    0.9798    1.1311 H   0  0  0  0  0  0  0  0  0  0  0  0
   -3.2015    0.6957    0.7682 H   0  0  0  0  0  0  0  0  0  0  0  0
    3.2012   -0.7268   -0.8508 H   0  0  0  0  0  0  0  0  0  0  0  0
  2  1  2  0
  3  1  1  0
  4  6  1  0
  5  1  1  0
  6  3  2  0
  7  2  1  0
  8  7  2  0
  9 13  1  0
 10  5  1  0
 11  5  1  0
 12 10  1  0
 13 11  1  0
 14  3  1  0
 15  6  1  0
 16  9  1  0
 17 21  1  0
 18  7  1  0
 19  8  1  0
 20 22  1  0
 21 23  1  0
 22 16  1  0
 23 20  1  0
 24 14  2  0
 25 15  2  0
 26 19  2  0
 27 18  2  0
  9 12  1  0
  8  4  1  0
 24 25  1  0
 27 26  1  0
 29 28  2  0
 30 28  1  0
 31 33  1  0
 32 28  1  0
 33 30  2  0
 34 29  1  0
 35 34  2  0
 36 40  1  0
 37 32  1  0
 38 32  1  0
 39 37  1  0
 40 38  1  0
 41 30  1  0
 42 33  1  0
 43 36  1  0
 44 48  1  0
 45 34  1  0
 46 35  1  0
 47 49  1  0
 48 50  1  0
 49 43  1  0
 50 47  1  0
 51 41  2  0
 52 42  2  0
 53 46  2  0
 54 45  2  0
 36 39  1  0
 35 31  1  0
 51 52  1  0
 54 53  1  0
 56 58  1  0
 57 55  1  0
 58 57  2  0
 59 55  2  0
 60 56  2  0
 61 55  1  0
 62 56  1  0
 10 63  1  0
 10 64  1  0
 11 65  1  0
 11 66  1  0
 12 67  1  0
 12 68  1  0
 13 69  1  0
 13 70  1  0
 14 71  1  0
 15 72  1  0
 16 73  1  0
 16 74  1  0
 17 75  1  0
 18 76  1  0
 19 77  1  0
 21 78  1  0
 21 79  1  0
 22 80  1  0
 22 81  1  0
 23 82  1  0
 23 83  1  0
 24 84  1  0
 25 85  1  0
 26 86  1  0
 27 87  1  0
 37 88  1  0
 37 89  1  0
 38 90  1  0
 38 91  1  0
 39 92  1  0
 39 93  1  0
 40 94  1  0
 40 95  1  0
 41 96  1  0
 42 97  1  0
 43 98  1  0
 43 99  1  0
 44100  1  0
 45101  1  0
 46102  1  0
 48103  1  0
 48104  1  0
 49105  1  0
 49106  1  0
 50107  1  0
 50108  1  0
 51109  1  0
 52110  1  0
 53111  1  0
 54112  1  0
 57113  1  0
 58114  1  0
 61115  1  0
 62116  1  0
M  END
$$$$
