
     RDKit          3D

116121  0  0  0  0  0  0  0  0999 V2000
    1.9382    0.1879    0.0116 C   0  0  0  0  0  0  0  0  0  0  0  0
    2.2071   -0.9425   -0.5841 N   0  0  0  0  0  0  0  0  0  0  0  0
    2.9233    1.0594    0.7300 C   0  0  0  0  0  0  0  0  0  0  0  0
    4.7044    0.8324   -1.4306 S   0  0  0  0  0  0  0  0  0  0  0  0
    0.6179    0.6466   -0.0096 N   0  0  0  0  0  0  0  0  0  0  0  0
    4.1489    1.4370    0.1580 C   0  0  0  0  0  0  0  0  0  0  0  0
    3.4764   -1.5448   -0.6036 C   0  0  0  0  0  0  0  0  0  0  0  0
    4.6589   -0.9097   -1.0295 C   0  0  0  0  0  0  0  0  0  0  0  0
   -2.1552    0.0066   -1.0436 N   0  0  0  0  0  0  0  0  0  0  0  0
   -0.3674   -0.2010    0.7069 C   0  0  0  0  0  0  0  0  0  0  0  0
    0.1273    1.1006   -1.3386 C   0  0  0  0  0  0  0  0  0  0  0  0
   -1.8093    0.2234    0.3747 C   0  0  0  0  0  0  0  0  0  0  0  0
   -0.9669    0.1746   -1.9134 C   0  0  0  0  0  0  0  0  0  0  0  0
    2.5654    1.5523    1.9953 C   0  0  0  0  0  0  0  0  0  0  0  0
    4.9969    2.3050    0.8641 C   0  0  0  0  0  0  0  0  0  0  0  0
   -3.3022    0.8155   -1.4951 C   0  0  0  0  0  0  0  0  0  0  0  0
   -8.1392   -0.7173    1.3529 O   0  0  0  0  0  0  0  0  0  0  0  0
    3.5316   -2.9042   -0.2639 C   0  0  0  0  0  0  0  0  0  0  0  0
    5.8594   -1.6317   -1.0995 C   0  0  0  0  0  0  0  0  0  0  0  0
   -5.0333   -0.6771   -0.6344 O   0  0  0  0  0  0  0  0  0  0  0  0
   -7.3220   -0.4328    0.2241 C   0  0  0  0  0  0  0  0  0  0  0  0
   -4.5819    0.6772   -0.6442 C   0  0  0  0  0  0  0  0  0  0  0  0
   -5.9144   -0.9743    0.4464 C   0  0  0  0  0  0  0  0  0  0  0  0
    3.4212    2.4059    2.6942 C   0  0  0  0  0  0  0  0  0  0  0  0
    4.6411    2.7782    2.1287 C   0  0  0  0  0  0  0  0  0  0  0  0
    5.8944   -2.9795   -0.7456 C   0  0  0  0  0  0  0  0  0  0  0  0
    4.7302   -3.6172   -0.3269 C   0  0  0  0  0  0  0  0  0  0  0  0
   -1.8741   -0.6194    0.1776 C   0  0  0  0  0  0  0  0  0  0  0  0
   -2.4651   -0.7557   -0.9772 N   0  0  0  0  0  0  0  0  0  0  0  0
   -2.5451   -0.0681    1.3998 C   0  0  0  0  0  0  0  0  0  0  0  0
   -3.3978    2.1455   -0.0816 S   0  0  0  0  0  0  0  0  0  0  0  0
   -0.5374   -1.0327    0.3091 N   0  0  0  0  0  0  0  0  0  0  0  0
   -3.1972    1.1714    1.4002 C   0  0  0  0  0  0  0  0  0  0  0  0
   -3.7855   -0.3675   -1.2585 C   0  0  0  0  0  0  0  0  0  0  0  0
   -4.3078    0.9151   -1.0149 C   0  0  0  0  0  0  0  0  0  0  0  0
    1.6634    0.1808   -1.3010 N   0  0  0  0  0  0  0  0  0  0  0  0
    0.0830   -1.7765   -0.8110 C   0  0  0  0  0  0  0  0  0  0  0  0
    0.4374   -0.1049    0.9294 C   0  0  0  0  0  0  0  0  0  0  0  0
    0.6872   -0.8025   -1.8521 C   0  0  0  0  0  0  0  0  0  0  0  0
    1.0340    0.8503   -0.1350 C   0  0  0  0  0  0  0  0  0  0  0  0
   -2.4499   -0.8127    2.5842 C   0  0  0  0  0  0  0  0  0  0  0  0
   -3.7327    1.6620    2.6000 C   0  0  0  0  0  0  0  0  0  0  0  0
    2.9443   -0.4706   -0.9760 C   0  0  0  0  0  0  0  0  0  0  0  0
    8.7914    0.6337    0.1898 O   0  0  0  0  0  0  0  0  0  0  0  0
   -4.5806   -1.2910   -1.9488 C   0  0  0  0  0  0  0  0  0  0  0  0
   -5.5968    1.2505   -1.4613 C   0  0  0  0  0  0  0  0  0  0  0  0
    5.2872   -0.2236   -0.4603 O   0  0  0  0  0  0  0  0  0  0  0  0
    7.6471   -0.1924    0.0204 C   0  0  0  0  0  0  0  0  0  0  0  0
    4.0920    0.5216   -0.7327 C   0  0  0  0  0  0  0  0  0  0  0  0
    6.4141    0.6394   -0.3144 C   0  0  0  0  0  0  0  0  0  0  0  0
   -2.9995   -0.3236    3.7709 C   0  0  0  0  0  0  0  0  0  0  0  0
   -3.6363    0.9167    3.7778 C   0  0  0  0  0  0  0  0  0  0  0  0
   -6.3717    0.3147   -2.1469 C   0  0  0  0  0  0  0  0  0  0  0  0
   -5.8661   -0.9581   -2.3859 C   0  0  0  0  0  0  0  0  0  0  0  0
    1.8480    0.0365   -0.2104 C   0  0  0  0  0  0  0  0  0  0  0  0
   -1.9118   -0.4880   -0.1466 C   0  0  0  0  0  0  0  0  0  0  0  0
    0.4151    0.3305   -0.1288 C   0  0  0  0  0  0  0  0  0  0  0  0
   -0.4607   -0.6800   -0.2167 C   0  0  0  0  0  0  0  0  0  0  0  0
    2.3710   -1.0515   -0.3514 O   0  0  0  0  0  0  0  0  0  0  0  0
   -2.7320   -1.3842   -0.2230 O   0  0  0  0  0  0  0  0  0  0  0  0
    2.5571    1.1699   -0.1043 O   0  0  0  0  0  0  0  0  0  0  0  0
   -2.2832    0.7901    0.0187 O   0  0  0  0  0  0  0  0  0  0  0  0
   -0.2028   -0.0960    1.7861 H   0  0  0  0  0  0  0  0  0  0  0  0
   -0.2288   -1.2621    0.4577 H   0  0  0  0  0  0  0  0  0  0  0  0
    0.9534    1.1744   -2.0569 H   0  0  0  0  0  0  0  0  0  0  0  0
   -0.2700    2.1142   -1.2179 H   0  0  0  0  0  0  0  0  0  0  0  0
   -2.4981   -0.3500    1.0041 H   0  0  0  0  0  0  0  0  0  0  0  0
   -1.9251    1.2831    0.6375 H   0  0  0  0  0  0  0  0  0  0  0  0
   -1.2516    0.5214   -2.9148 H   0  0  0  0  0  0  0  0  0  0  0  0
   -0.5328   -0.8220   -2.0657 H   0  0  0  0  0  0  0  0  0  0  0  0
    1.6165    1.2717    2.4469 H   0  0  0  0  0  0  0  0  0  0  0  0
    5.9560    2.6037    0.4403 H   0  0  0  0  0  0  0  0  0  0  0  0
   -3.5516    0.4974   -2.5168 H   0  0  0  0  0  0  0  0  0  0  0  0
   -3.0202    1.8748   -1.5387 H   0  0  0  0  0  0  0  0  0  0  0  0
   -9.0158   -0.3409    1.1714 H   0  0  0  0  0  0  0  0  0  0  0  0
    2.6189   -3.4081    0.0401 H   0  0  0  0  0  0  0  0  0  0  0  0
    6.7764   -1.1440   -1.4194 H   0  0  0  0  0  0  0  0  0  0  0  0
   -7.3082    0.6511    0.0694 H   0  0  0  0  0  0  0  0  0  0  0  0
   -7.7656   -0.8924   -0.6660 H   0  0  0  0  0  0  0  0  0  0  0  0
   -5.3630    1.3028   -1.0885 H   0  0  0  0  0  0  0  0  0  0  0  0
   -4.4031    1.0423    0.3734 H   0  0  0  0  0  0  0  0  0  0  0  0
   -5.9641   -2.0654    0.5351 H   0  0  0  0  0  0  0  0  0  0  0  0
   -5.4954   -0.6191    1.3972 H   0  0  0  0  0  0  0  0  0  0  0  0
    3.1422    2.7668    3.6807 H   0  0  0  0  0  0  0  0  0  0  0  0
    5.3167    3.4350    2.6713 H   0  0  0  0  0  0  0  0  0  0  0  0
    6.8235   -3.5370   -0.7996 H   0  0  0  0  0  0  0  0  0  0  0  0
    4.7418   -4.6724   -0.0626 H   0  0  0  0  0  0  0  0  0  0  0  0
    0.8704   -2.4260   -0.4099 H   0  0  0  0  0  0  0  0  0  0  0  0
   -0.6398   -2.4461   -1.2897 H   0  0  0  0  0  0  0  0  0  0  0  0
   -0.0135    0.4923    1.7290 H   0  0  0  0  0  0  0  0  0  0  0  0
    1.2338   -0.6902    1.4036 H   0  0  0  0  0  0  0  0  0  0  0  0
    1.1515   -1.3737   -2.6652 H   0  0  0  0  0  0  0  0  0  0  0  0
   -0.1215   -0.2296   -2.3245 H   0  0  0  0  0  0  0  0  0  0  0  0
    1.7366    1.5402    0.3450 H   0  0  0  0  0  0  0  0  0  0  0  0
    0.2275    1.4876   -0.5193 H   0  0  0  0  0  0  0  0  0  0  0  0
   -1.9499   -1.7777    2.5788 H   0  0  0  0  0  0  0  0  0  0  0  0
   -4.2412    2.6236    2.6215 H   0  0  0  0  0  0  0  0  0  0  0  0
    3.2536   -1.1005   -1.8209 H   0  0  0  0  0  0  0  0  0  0  0  0
    2.8640   -1.1589   -0.1258 H   0  0  0  0  0  0  0  0  0  0  0  0
    8.6235    1.2166    0.9498 H   0  0  0  0  0  0  0  0  0  0  0  0
   -4.1828   -2.2797   -2.1599 H   0  0  0  0  0  0  0  0  0  0  0  0
   -6.0001    2.2436   -1.2757 H   0  0  0  0  0  0  0  0  0  0  0  0
    7.8540   -0.9063   -0.7827 H   0  0  0  0  0  0  0  0  0  0  0  0
    7.4880   -0.7773    0.9322 H   0  0  0  0  0  0  0  0  0  0  0  0
    3.8822    1.1642    0.1289 H   0  0  0  0  0  0  0  0  0  0  0  0
    4.2395    1.1462   -1.6208 H   0  0  0  0  0  0  0  0  0  0  0  0
    6.5837    1.1990   -1.2441 H   0  0  0  0  0  0  0  0  0  0  0  0
    6.2332    1.3693    0.4869 H   0  0  0  0  0  0  0  0  0  0  0  0
   -2.9331   -0.9126    4.6833 H   0  0  0  0  0  0  0  0  0  0  0  0
   -4.0689    1.3012    4.6993 H   0  0  0  0  0  0  0  0  0  0  0  0
   -7.3669    0.5850   -2.4945 H   0  0  0  0  0  0  0  0  0  0  0  0
   -6.4612   -1.6924   -2.9256 H   0  0  0  0  0  0  0  0  0  0  0  0
    0.1167    1.3644    0.0041 H   0  0  0  0  0  0  0  0  0  0  0  0
   -0.1458   -1.7110   -0.3467 H   0  0  0  0  0  0  0  0  0  0  0  0
    3.4887    0.8742   -0.1704 H   0  0  0  0  0  0  0  0  0  0  0  0
   -3.2632    0.7491    0.0398 H   0  0  0  0  0  0  0  0  0  0  0  0
  2  1  2  0
  3  1  1  0
  4  6  1  0
  5  1  1  0
  6  3  2  0
  7  2  1  0
  8  7  2  0
  9 13  1  0
 10  5  1  0
 11  5  1  0
 12 10  1  0
 13 11  1  0
 14  3  1  0
 15  6  1  0
 16  9  1  0
 17 21  1  0
 18  7  1  0
 19  8  1  0
 20 22  1  0
 21 23  1  0
 22 16  1  0
 23 20  1  0
 24 14  2  0
 25 15  2  0
 26 19  2  0
 27 18  2  0
  9 12  1  0
  8  4  1  0
 24 25  1  0
 27 26  1  0
 29 28  2  0
 30 28  1  0
 31 33  1  0
 32 28  1  0
 33 30  2  0
 34 29  1  0
 35 34  2  0
 36 40  1  0
 37 32  1  0
 38 32  1  0
 39 37  1  0
 40 38  1  0
 41 30  1  0
 42 33  1  0
 43 36  1  0
 44 48  1  0
 45 34  1  0
 46 35  1  0
 47 49  1  0
 48 50  1  0
 49 43  1  0
 50 47  1  0
 51 41  2  0
 52 42  2  0
 53 46  2  0
 54 45  2  0
 36 39  1  0
 35 31  1  0
 51 52  1  0
 54 53  1  0
 56 58  1  0
 57 55  1  0
 58 57  2  0
 59 55  2  0
 60 56  2  0
 61 55  1  0
 62 56  1  0
 10 63  1  0
 10 64  1  0
 11 65  1  0
 11 66  1  0
 12 67  1  0
 12 68  1  0
 13 69  1  0
 13 70  1  0
 14 71  1  0
 15 72  1  0
 16 73  1  0
 16 74  1  0
 17 75  1  0
 18 76  1  0
 19 77  1  0
 21 78  1  0
 21 79  1  0
 22 80  1  0
 22 81  1  0
 23 82  1  0
 23 83  1  0
 24 84  1  0
 25 85  1  0
 26 86  1  0
 27 87  1  0
 37 88  1  0
 37 89  1  0
 38 90  1  0
 38 91  1  0
 39 92  1  0
 39 93  1  0
 40 94  1  0
 40 95  1  0
 41 96  1  0
 42 97  1  0
 43 98  1  0
 43 99  1  0
 44100  1  0
 45101  1  0
 46102  1  0
 48103  1  0
 48104  1  0
 49105  1  0
 49106  1  0
 50107  1  0
 50108  1  0
 51109  1  0
 52110  1  0
 53111  1  0
 54112  1  0
 57113  1  0
 58114  1  0
 61115  1  0
 62116  1  0
M  END
$$$$
