
     RDKit          3D

116121  0  0  0  0  0  0  0  0999 V2000
   -1.8107    0.7270   -0.1837 C   0  0  0  0  0  0  0  0  0  0  0  0
   -2.1893    0.3525   -1.3769 N   0  0  0  0  0  0  0  0  0  0  0  0
   -2.7251    0.7361    1.0058 C   0  0  0  0  0  0  0  0  0  0  0  0
   -3.4383   -1.9128    0.4417 S   0  0  0  0  0  0  0  0  0  0  0  0
   -0.4890    1.1772   -0.0075 N   0  0  0  0  0  0  0  0  0  0  0  0
   -3.4182   -0.4128    1.4105 C   0  0  0  0  0  0  0  0  0  0  0  0
   -3.4727   -0.1201   -1.7020 C   0  0  0  0  0  0  0  0  0  0  0  0
   -4.1222   -1.1794   -1.0423 C   0  0  0  0  0  0  0  0  0  0  0  0
    1.8560   -0.6558   -0.1088 N   0  0  0  0  0  0  0  0  0  0  0  0
    0.2663    0.8456    1.2220 C   0  0  0  0  0  0  0  0  0  0  0  0
    0.4135    1.1713   -1.1817 C   0  0  0  0  0  0  0  0  0  0  0  0
    0.9624   -0.5276    1.0693 C   0  0  0  0  0  0  0  0  0  0  0  0
    1.1071   -0.2072   -1.3161 C   0  0  0  0  0  0  0  0  0  0  0  0
   -2.8184    1.9198    1.7557 C   0  0  0  0  0  0  0  0  0  0  0  0
   -4.1740   -0.3745    2.5889 C   0  0  0  0  0  0  0  0  0  0  0  0
    3.1165    0.0847    0.0804 C   0  0  0  0  0  0  0  0  0  0  0  0
    8.1044   -1.7307    0.7435 O   0  0  0  0  0  0  0  0  0  0  0  0
   -4.0839    0.4394   -2.8326 C   0  0  0  0  0  0  0  0  0  0  0  0
   -5.3641   -1.6422   -1.5046 C   0  0  0  0  0  0  0  0  0  0  0  0
    5.4291    0.3857   -0.6572 O   0  0  0  0  0  0  0  0  0  0  0  0
    7.1549   -1.2967   -0.2236 C   0  0  0  0  0  0  0  0  0  0  0  0
    4.2321   -0.3704   -0.8798 C   0  0  0  0  0  0  0  0  0  0  0  0
    6.2888   -0.1702    0.3362 C   0  0  0  0  0  0  0  0  0  0  0  0
   -3.5840    1.9488    2.9208 C   0  0  0  0  0  0  0  0  0  0  0  0
   -4.2526    0.8012    3.3400 C   0  0  0  0  0  0  0  0  0  0  0  0
   -5.9607   -1.0651   -2.6279 C   0  0  0  0  0  0  0  0  0  0  0  0
   -5.3209   -0.0219   -3.2913 C   0  0  0  0  0  0  0  0  0  0  0  0
   -1.9521   -0.0592    0.3675 C   0  0  0  0  0  0  0  0  0  0  0  0
   -2.3200   -1.3106    0.3403 N   0  0  0  0  0  0  0  0  0  0  0  0
   -2.8134    1.0955   -0.0571 C   0  0  0  0  0  0  0  0  0  0  0  0
   -3.4725   -0.2427   -2.4222 S   0  0  0  0  0  0  0  0  0  0  0  0
   -0.6773    0.2583    0.8503 N   0  0  0  0  0  0  0  0  0  0  0  0
   -3.4875    1.1269   -1.2837 C   0  0  0  0  0  0  0  0  0  0  0  0
   -3.5731   -1.7767   -0.0862 C   0  0  0  0  0  0  0  0  0  0  0  0
   -4.1805   -1.4526   -1.3130 C   0  0  0  0  0  0  0  0  0  0  0  0
    2.2458    0.2820    1.3961 N   0  0  0  0  0  0  0  0  0  0  0  0
    0.2508    0.9760   -0.0476 C   0  0  0  0  0  0  0  0  0  0  0  0
   -0.0249   -0.6342    1.8351 C   0  0  0  0  0  0  0  0  0  0  0  0
    1.5729    1.3610    0.6558 C   0  0  0  0  0  0  0  0  0  0  0  0
    1.4400   -0.9435    1.4692 C   0  0  0  0  0  0  0  0  0  0  0  0
   -2.8799    2.2002    0.8072 C   0  0  0  0  0  0  0  0  0  0  0  0
   -4.2162    2.2741   -1.6327 C   0  0  0  0  0  0  0  0  0  0  0  0
    3.6466    0.0595    1.0367 C   0  0  0  0  0  0  0  0  0  0  0  0
    7.9626   -0.2729    0.2853 O   0  0  0  0  0  0  0  0  0  0  0  0
   -4.1976   -2.7244    0.7369 C   0  0  0  0  0  0  0  0  0  0  0  0
   -5.3917   -2.0553   -1.6798 C   0  0  0  0  0  0  0  0  0  0  0  0
    5.3354   -0.7449   -0.5442 O   0  0  0  0  0  0  0  0  0  0  0  0
    7.5240    0.0858   -1.0259 C   0  0  0  0  0  0  0  0  0  0  0  0
    3.9327   -0.5198   -0.3608 C   0  0  0  0  0  0  0  0  0  0  0  0
    6.0370    0.4228   -0.9898 C   0  0  0  0  0  0  0  0  0  0  0  0
   -3.6082    3.3344    0.4493 C   0  0  0  0  0  0  0  0  0  0  0  0
   -4.2757    3.3720   -0.7710 C   0  0  0  0  0  0  0  0  0  0  0  0
   -6.0003   -2.9911   -0.8405 C   0  0  0  0  0  0  0  0  0  0  0  0
   -5.4010   -3.3273    0.3690 C   0  0  0  0  0  0  0  0  0  0  0  0
    1.8582    0.2645    0.1362 C   0  0  0  0  0  0  0  0  0  0  0  0
   -1.8599   -0.2520   -0.1295 C   0  0  0  0  0  0  0  0  0  0  0  0
    0.4829    0.2896   -0.3624 C   0  0  0  0  0  0  0  0  0  0  0  0
   -0.4864   -0.2651    0.3745 C   0  0  0  0  0  0  0  0  0  0  0  0
    2.2524   -0.1947    1.1894 O   0  0  0  0  0  0  0  0  0  0  0  0
   -2.2609    0.2406   -1.1661 O   0  0  0  0  0  0  0  0  0  0  0  0
    2.6818    0.8392   -0.7521 O   0  0  0  0  0  0  0  0  0  0  0  0
   -2.6734   -0.8842    0.7286 O   0  0  0  0  0  0  0  0  0  0  0  0
   -0.3678    0.8326    2.1132 H   0  0  0  0  0  0  0  0  0  0  0  0
    1.0148    1.6278    1.3979 H   0  0  0  0  0  0  0  0  0  0  0  0
   -0.1233    1.4186   -2.1041 H   0  0  0  0  0  0  0  0  0  0  0  0
    1.1624    1.9614   -1.0539 H   0  0  0  0  0  0  0  0  0  0  0  0
    1.5157   -0.7613    1.9870 H   0  0  0  0  0  0  0  0  0  0  0  0
    0.1897   -1.3043    0.9865 H   0  0  0  0  0  0  0  0  0  0  0  0
    1.7595   -0.2048   -2.1962 H   0  0  0  0  0  0  0  0  0  0  0  0
    0.3429   -0.9695   -1.5224 H   0  0  0  0  0  0  0  0  0  0  0  0
   -2.2869    2.8114    1.4345 H   0  0  0  0  0  0  0  0  0  0  0  0
   -4.7184   -1.2562    2.9216 H   0  0  0  0  0  0  0  0  0  0  0  0
    3.4841   -0.0742    1.0997 H   0  0  0  0  0  0  0  0  0  0  0  0
    2.9822    1.1673   -0.0101 H   0  0  0  0  0  0  0  0  0  0  0  0
    8.7314   -0.9978    0.8783 H   0  0  0  0  0  0  0  0  0  0  0  0
   -3.5786    1.2440   -3.3603 H   0  0  0  0  0  0  0  0  0  0  0  0
   -5.8741   -2.4535   -0.9902 H   0  0  0  0  0  0  0  0  0  0  0  0
    7.6826   -0.9733   -1.1284 H   0  0  0  0  0  0  0  0  0  0  0  0
    6.5425   -2.1601   -0.5054 H   0  0  0  0  0  0  0  0  0  0  0  0
    4.4185   -1.4465   -0.7905 H   0  0  0  0  0  0  0  0  0  0  0  0
    3.9425   -0.1758   -1.9175 H   0  0  0  0  0  0  0  0  0  0  0  0
    6.9400    0.6370    0.6838 H   0  0  0  0  0  0  0  0  0  0  0  0
    5.7269   -0.5059    1.2129 H   0  0  0  0  0  0  0  0  0  0  0  0
   -3.6496    2.8656    3.5004 H   0  0  0  0  0  0  0  0  0  0  0  0
   -4.8516    0.8207    4.2463 H   0  0  0  0  0  0  0  0  0  0  0  0
   -6.9194   -1.4334   -2.9834 H   0  0  0  0  0  0  0  0  0  0  0  0
   -5.7731    0.4283   -4.1694 H   0  0  0  0  0  0  0  0  0  0  0  0
    0.4711    0.3391   -0.9157 H   0  0  0  0  0  0  0  0  0  0  0  0
   -0.2144    1.8943   -0.4282 H   0  0  0  0  0  0  0  0  0  0  0  0
   -0.5600   -1.5823    1.9540 H   0  0  0  0  0  0  0  0  0  0  0  0
   -0.0631   -0.1344    2.8107 H   0  0  0  0  0  0  0  0  0  0  0  0
    2.2390    1.8173   -0.0861 H   0  0  0  0  0  0  0  0  0  0  0  0
    1.3452    2.1484    1.3858 H   0  0  0  0  0  0  0  0  0  0  0  0
    1.4550   -1.4865    0.5178 H   0  0  0  0  0  0  0  0  0  0  0  0
    1.8589   -1.6046    2.2346 H   0  0  0  0  0  0  0  0  0  0  0  0
   -2.3593    2.1744    1.7637 H   0  0  0  0  0  0  0  0  0  0  0  0
   -4.7554    2.3170   -2.5770 H   0  0  0  0  0  0  0  0  0  0  0  0
    4.1026   -0.6040    1.7838 H   0  0  0  0  0  0  0  0  0  0  0  0
    4.1905    1.0035    1.1589 H   0  0  0  0  0  0  0  0  0  0  0  0
    7.3201   -0.9455    0.5905 H   0  0  0  0  0  0  0  0  0  0  0  0
   -3.7211   -3.0003    1.6757 H   0  0  0  0  0  0  0  0  0  0  0  0
   -5.8700   -1.7985   -2.6220 H   0  0  0  0  0  0  0  0  0  0  0  0
    8.1110    0.9436   -1.3647 H   0  0  0  0  0  0  0  0  0  0  0  0
    7.7199   -0.7663   -1.6836 H   0  0  0  0  0  0  0  0  0  0  0  0
    3.5409    0.1190   -1.1610 H   0  0  0  0  0  0  0  0  0  0  0  0
    3.4570   -1.4990   -0.4574 H   0  0  0  0  0  0  0  0  0  0  0  0
    5.8662    1.2463   -0.2885 H   0  0  0  0  0  0  0  0  0  0  0  0
    5.6857    0.7049   -1.9894 H   0  0  0  0  0  0  0  0  0  0  0  0
   -3.6535    4.1852    1.1230 H   0  0  0  0  0  0  0  0  0  0  0  0
   -4.8463    4.2544   -1.0546 H   0  0  0  0  0  0  0  0  0  0  0  0
   -6.9374   -3.4550   -1.1357 H   0  0  0  0  0  0  0  0  0  0  0  0
   -5.8588   -4.0645    1.0226 H   0  0  0  0  0  0  0  0  0  0  0  0
    0.2995    0.7513   -1.3260 H   0  0  0  0  0  0  0  0  0  0  0  0
   -0.3027   -0.7362    1.3332 H   0  0  0  0  0  0  0  0  0  0  0  0
    3.5661    0.7715   -0.3363 H   0  0  0  0  0  0  0  0  0  0  0  0
   -3.5577   -0.8245    0.3106 H   0  0  0  0  0  0  0  0  0  0  0  0
  2  1  2  0
  3  1  1  0
  4  6  1  0
  5  1  1  0
  6  3  2  0
  7  2  1  0
  8  7  2  0
  9 13  1  0
 10  5  1  0
 11  5  1  0
 12 10  1  0
 13 11  1  0
 14  3  1  0
 15  6  1  0
 16  9  1  0
 17 21  1  0
 18  7  1  0
 19  8  1  0
 20 22  1  0
 21 23  1  0
 22 16  1  0
 23 20  1  0
 24 14  2  0
 25 15  2  0
 26 19  2  0
 27 18  2  0
  9 12  1  0
  8  4  1  0
 24 25  1  0
 27 26  1  0
 29 28  2  0
 30 28  1  0
 31 33  1  0
 32 28  1  0
 33 30  2  0
 34 29  1  0
 35 34  2  0
 36 40  1  0
 37 32  1  0
 38 32  1  0
 39 37  1  0
 40 38  1  0
 41 30  1  0
 42 33  1  0
 43 36  1  0
 44 48  1  0
 45 34  1  0
 46 35  1  0
 47 49  1  0
 48 50  1  0
 49 43  1  0
 50 47  1  0
 51 41  2  0
 52 42  2  0
 53 46  2  0
 54 45  2  0
 36 39  1  0
 35 31  1  0
 51 52  1  0
 54 53  1  0
 56 58  1  0
 57 55  1  0
 58 57  2  0
 59 55  2  0
 60 56  2  0
 61 55  1  0
 62 56  1  0
 10 63  1  0
 10 64  1  0
 11 65  1  0
 11 66  1  0
 12 67  1  0
 12 68  1  0
 13 69  1  0
 13 70  1  0
 14 71  1  0
 15 72  1  0
 16 73  1  0
 16 74  1  0
 17 75  1  0
 18 76  1  0
 19 77  1  0
 21 78  1  0
 21 79  1  0
 22 80  1  0
 22 81  1  0
 23 82  1  0
 23 83  1  0
 24 84  1  0
 25 85  1  0
 26 86  1  0
 27 87  1  0
 37 88  1  0
 37 89  1  0
 38 90  1  0
 38 91  1  0
 39 92  1  0
 39 93  1  0
 40 94  1  0
 40 95  1  0
 41 96  1  0
 42 97  1  0
 43 98  1  0
 43 99  1  0
 44100  1  0
 45101  1  0
 46102  1  0
 48103  1  0
 48104  1  0
 49105  1  0
 49106  1  0
 50107  1  0
 50108  1  0
 51109  1  0
 52110  1  0
 53111  1  0
 54112  1  0
 57113  1  0
 58114  1  0
 61115  1  0
 62116  1  0
M  END
$$$$
