
     RDKit          3D

116121  0  0  0  0  0  0  0  0999 V2000
   -1.7098   -0.3297    0.0335 C   0  0  0  0  0  0  0  0  0  0  0  0
   -2.1541   -0.1053   -1.1779 N   0  0  0  0  0  0  0  0  0  0  0  0
   -2.6017   -0.5385    1.2241 C   0  0  0  0  0  0  0  0  0  0  0  0
   -3.9831    1.8071    0.5742 S   0  0  0  0  0  0  0  0  0  0  0  0
   -0.3209   -0.3976    0.2155 N   0  0  0  0  0  0  0  0  0  0  0  0
   -3.5867    0.3906    1.5854 C   0  0  0  0  0  0  0  0  0  0  0  0
   -3.5087    0.0114   -1.5272 C   0  0  0  0  0  0  0  0  0  0  0  0
   -4.4166    0.8898   -0.9045 C   0  0  0  0  0  0  0  0  0  0  0  0
    2.5205    0.6262    0.2920 N   0  0  0  0  0  0  0  0  0  0  0  0
    0.5557   -0.3888   -0.9797 C   0  0  0  0  0  0  0  0  0  0  0  0
    0.3399    0.0247    1.4672 C   0  0  0  0  0  0  0  0  0  0  0  0
    2.0488   -0.4631   -0.5972 C   0  0  0  0  0  0  0  0  0  0  0  0
    1.4212    1.0899    1.1764 C   0  0  0  0  0  0  0  0  0  0  0  0
   -2.3750   -1.6713    2.0199 C   0  0  0  0  0  0  0  0  0  0  0  0
   -4.3223    0.1826    2.7586 C   0  0  0  0  0  0  0  0  0  0  0  0
    3.0782    1.7840   -0.4453 C   0  0  0  0  0  0  0  0  0  0  0  0
    5.6186   -1.3102    0.8178 O   0  0  0  0  0  0  0  0  0  0  0  0
   -3.9345   -0.7066   -2.6512 C   0  0  0  0  0  0  0  0  0  0  0  0
   -5.7181    1.0286   -1.4082 C   0  0  0  0  0  0  0  0  0  0  0  0
    5.4018    1.3163    0.0176 O   0  0  0  0  0  0  0  0  0  0  0  0
    6.2465   -0.9264   -0.4031 C   0  0  0  0  0  0  0  0  0  0  0  0
    4.4674    1.5239   -1.0460 C   0  0  0  0  0  0  0  0  0  0  0  0
    6.5595    0.5693   -0.3755 C   0  0  0  0  0  0  0  0  0  0  0  0
   -3.1217   -1.8758    3.1772 C   0  0  0  0  0  0  0  0  0  0  0  0
   -4.0913   -0.9451    3.5477 C   0  0  0  0  0  0  0  0  0  0  0  0
   -6.1239    0.2980   -2.5270 C   0  0  0  0  0  0  0  0  0  0  0  0
   -5.2352   -0.5766   -3.1439 C   0  0  0  0  0  0  0  0  0  0  0  0
   -1.9931    0.3295   -0.3648 C   0  0  0  0  0  0  0  0  0  0  0  0
   -2.4958    1.5314   -0.2472 N   0  0  0  0  0  0  0  0  0  0  0  0
   -2.7648   -0.9482   -0.2517 C   0  0  0  0  0  0  0  0  0  0  0  0
   -3.8940   -0.0342    2.1423 S   0  0  0  0  0  0  0  0  0  0  0  0
   -0.6263    0.1919   -0.6224 N   0  0  0  0  0  0  0  0  0  0  0  0
   -3.5988   -1.2207    0.8402 C   0  0  0  0  0  0  0  0  0  0  0  0
   -3.8465    1.8053    0.0332 C   0  0  0  0  0  0  0  0  0  0  0  0
   -4.5730    1.2579    1.1056 C   0  0  0  0  0  0  0  0  0  0  0  0
    2.2683    0.7371   -0.8180 N   0  0  0  0  0  0  0  0  0  0  0  0
   -0.0708    1.0731   -1.6750 C   0  0  0  0  0  0  0  0  0  0  0  0
    0.2243    0.2533    0.5880 C   0  0  0  0  0  0  0  0  0  0  0  0
    1.3771    0.6650   -2.0016 C   0  0  0  0  0  0  0  0  0  0  0  0
    1.6932   -0.0853    0.2685 C   0  0  0  0  0  0  0  0  0  0  0  0
   -2.5880   -1.9060   -1.2645 C   0  0  0  0  0  0  0  0  0  0  0  0
   -4.2477   -2.4626    0.9062 C   0  0  0  0  0  0  0  0  0  0  0  0
    3.6302    0.3005   -1.1687 C   0  0  0  0  0  0  0  0  0  0  0  0
    7.6020   -2.3117    1.4416 O   0  0  0  0  0  0  0  0  0  0  0  0
   -4.4681    2.7853   -0.7536 C   0  0  0  0  0  0  0  0  0  0  0  0
   -5.8856    1.6835    1.3610 C   0  0  0  0  0  0  0  0  0  0  0  0
    6.0008    0.3251   -0.5719 O   0  0  0  0  0  0  0  0  0  0  0  0
    7.0218   -1.0390    1.1780 C   0  0  0  0  0  0  0  0  0  0  0  0
    4.6883    0.6587   -0.1085 C   0  0  0  0  0  0  0  0  0  0  0  0
    6.4146   -0.9979   -0.2223 C   0  0  0  0  0  0  0  0  0  0  0  0
   -3.2578   -3.1292   -1.1975 C   0  0  0  0  0  0  0  0  0  0  0  0
   -4.0863   -3.4068   -0.1125 C   0  0  0  0  0  0  0  0  0  0  0  0
   -6.4849    2.6481    0.5577 C   0  0  0  0  0  0  0  0  0  0  0  0
   -5.7779    3.1996   -0.5015 C   0  0  0  0  0  0  0  0  0  0  0  0
   -1.8732   -0.0873   -0.9712 C   0  0  0  0  0  0  0  0  0  0  0  0
    1.7230   -0.3434    0.2232 C   0  0  0  0  0  0  0  0  0  0  0  0
   -0.5610   -0.5768   -0.5454 C   0  0  0  0  0  0  0  0  0  0  0  0
    0.4419    0.2365   -0.1818 C   0  0  0  0  0  0  0  0  0  0  0  0
   -2.8262   -0.8001   -1.2248 O   0  0  0  0  0  0  0  0  0  0  0  0
    2.0231   -1.5236    0.2364 O   0  0  0  0  0  0  0  0  0  0  0  0
   -1.9502    1.2505   -1.0585 O   0  0  0  0  0  0  0  0  0  0  0  0
    2.5931    0.6246    0.5399 O   0  0  0  0  0  0  0  0  0  0  0  0
    0.3161   -1.2587   -1.6048 H   0  0  0  0  0  0  0  0  0  0  0  0
    0.3753    0.5158   -1.5709 H   0  0  0  0  0  0  0  0  0  0  0  0
   -0.3776    0.4699    2.1619 H   0  0  0  0  0  0  0  0  0  0  0  0
    0.7894   -0.8483    1.9609 H   0  0  0  0  0  0  0  0  0  0  0  0
    2.6522   -0.5332   -1.5109 H   0  0  0  0  0  0  0  0  0  0  0  0
    2.2247   -1.4133   -0.0650 H   0  0  0  0  0  0  0  0  0  0  0  0
    1.8666    1.4150    2.1215 H   0  0  0  0  0  0  0  0  0  0  0  0
    0.9178    1.9591    0.7356 H   0  0  0  0  0  0  0  0  0  0  0  0
   -1.6127   -2.3926    1.7335 H   0  0  0  0  0  0  0  0  0  0  0  0
   -5.0952    0.8846    3.0512 H   0  0  0  0  0  0  0  0  0  0  0  0
    3.1932    2.6164    0.2616 H   0  0  0  0  0  0  0  0  0  0  0  0
    2.3900    2.1088   -1.2372 H   0  0  0  0  0  0  0  0  0  0  0  0
    5.0075   -0.5754    1.0443 H   0  0  0  0  0  0  0  0  0  0  0  0
   -3.2309   -1.3591   -3.1527 H   0  0  0  0  0  0  0  0  0  0  0  0
   -6.4211    1.7086   -0.9298 H   0  0  0  0  0  0  0  0  0  0  0  0
    5.5607   -1.1794   -1.2162 H   0  0  0  0  0  0  0  0  0  0  0  0
    7.1626   -1.5131   -0.5231 H   0  0  0  0  0  0  0  0  0  0  0  0
    4.4513    0.6804   -1.7433 H   0  0  0  0  0  0  0  0  0  0  0  0
    4.7966    2.4074   -1.6030 H   0  0  0  0  0  0  0  0  0  0  0  0
    6.9473    0.9266   -1.3354 H   0  0  0  0  0  0  0  0  0  0  0  0
    7.3179    0.7608    0.3901 H   0  0  0  0  0  0  0  0  0  0  0  0
   -2.9439   -2.7585    3.7931 H   0  0  0  0  0  0  0  0  0  0  0  0
   -4.6669   -1.0999    4.4520 H   0  0  0  0  0  0  0  0  0  0  0  0
   -7.1341    0.4150   -2.9166 H   0  0  0  0  0  0  0  0  0  0  0  0
   -5.5416   -1.1414   -4.0173 H   0  0  0  0  0  0  0  0  0  0  0  0
   -0.6786    0.9855   -2.5795 H   0  0  0  0  0  0  0  0  0  0  0  0
   -0.0982    2.1226   -1.3556 H   0  0  0  0  0  0  0  0  0  0  0  0
    0.1571    1.2530    1.0403 H   0  0  0  0  0  0  0  0  0  0  0  0
   -0.1451   -0.4576    1.3358 H   0  0  0  0  0  0  0  0  0  0  0  0
    1.7509    1.3425   -2.7805 H   0  0  0  0  0  0  0  0  0  0  0  0
    1.3824   -0.3516   -2.4256 H   0  0  0  0  0  0  0  0  0  0  0  0
    1.7588   -1.1511    0.0168 H   0  0  0  0  0  0  0  0  0  0  0  0
    2.2659    0.0746    1.1869 H   0  0  0  0  0  0  0  0  0  0  0  0
   -1.9328   -1.6967   -2.1019 H   0  0  0  0  0  0  0  0  0  0  0  0
   -4.9017   -2.6944    1.7418 H   0  0  0  0  0  0  0  0  0  0  0  0
    3.9459    0.7813   -2.1081 H   0  0  0  0  0  0  0  0  0  0  0  0
    3.6594   -0.7764   -1.3719 H   0  0  0  0  0  0  0  0  0  0  0  0
    8.4498   -2.3420    0.9576 H   0  0  0  0  0  0  0  0  0  0  0  0
   -3.9081    3.2428   -1.5694 H   0  0  0  0  0  0  0  0  0  0  0  0
   -6.4425    1.2563    2.1912 H   0  0  0  0  0  0  0  0  0  0  0  0
    7.7856   -0.2570    1.3047 H   0  0  0  0  0  0  0  0  0  0  0  0
    6.2508   -0.8596    1.9311 H   0  0  0  0  0  0  0  0  0  0  0  0
    4.6833    1.7390    0.0615 H   0  0  0  0  0  0  0  0  0  0  0  0
    4.4837    0.1826    0.8542 H   0  0  0  0  0  0  0  0  0  0  0  0
    5.5910   -1.7098   -0.3279 H   0  0  0  0  0  0  0  0  0  0  0  0
    7.1684   -1.3008   -0.9592 H   0  0  0  0  0  0  0  0  0  0  0  0
   -3.1308   -3.8620   -1.9883 H   0  0  0  0  0  0  0  0  0  0  0  0
   -4.6164   -4.3563   -0.0614 H   0  0  0  0  0  0  0  0  0  0  0  0
   -7.5030    2.9694    0.7582 H   0  0  0  0  0  0  0  0  0  0  0  0
   -6.2371    3.9620   -1.1299 H   0  0  0  0  0  0  0  0  0  0  0  0
   -0.4574   -1.6563   -0.5355 H   0  0  0  0  0  0  0  0  0  0  0  0
    0.3554    1.3155   -0.1639 H   0  0  0  0  0  0  0  0  0  0  0  0
   -2.8791    1.4193   -1.3306 H   0  0  0  0  0  0  0  0  0  0  0  0
    3.4106    0.1412    0.7829 H   0  0  0  0  0  0  0  0  0  0  0  0
  2  1  2  0
  3  1  1  0
  4  6  1  0
  5  1  1  0
  6  3  2  0
  7  2  1  0
  8  7  2  0
  9 13  1  0
 10  5  1  0
 11  5  1  0
 12 10  1  0
 13 11  1  0
 14  3  1  0
 15  6  1  0
 16  9  1  0
 17 21  1  0
 18  7  1  0
 19  8  1  0
 20 22  1  0
 21 23  1  0
 22 16  1  0
 23 20  1  0
 24 14  2  0
 25 15  2  0
 26 19  2  0
 27 18  2  0
  9 12  1  0
  8  4  1  0
 24 25  1  0
 27 26  1  0
 29 28  2  0
 30 28  1  0
 31 33  1  0
 32 28  1  0
 33 30  2  0
 34 29  1  0
 35 34  2  0
 36 40  1  0
 37 32  1  0
 38 32  1  0
 39 37  1  0
 40 38  1  0
 41 30  1  0
 42 33  1  0
 43 36  1  0
 44 48  1  0
 45 34  1  0
 46 35  1  0
 47 49  1  0
 48 50  1  0
 49 43  1  0
 50 47  1  0
 51 41  2  0
 52 42  2  0
 53 46  2  0
 54 45  2  0
 36 39  1  0
 35 31  1  0
 51 52  1  0
 54 53  1  0
 56 58  1  0
 57 55  1  0
 58 57  2  0
 59 55  2  0
 60 56  2  0
 61 55  1  0
 62 56  1  0
 10 63  1  0
 10 64  1  0
 11 65  1  0
 11 66  1  0
 12 67  1  0
 12 68  1  0
 13 69  1  0
 13 70  1  0
 14 71  1  0
 15 72  1  0
 16 73  1  0
 16 74  1  0
 17 75  1  0
 18 76  1  0
 19 77  1  0
 21 78  1  0
 21 79  1  0
 22 80  1  0
 22 81  1  0
 23 82  1  0
 23 83  1  0
 24 84  1  0
 25 85  1  0
 26 86  1  0
 27 87  1  0
 37 88  1  0
 37 89  1  0
 38 90  1  0
 38 91  1  0
 39 92  1  0
 39 93  1  0
 40 94  1  0
 40 95  1  0
 41 96  1  0
 42 97  1  0
 43 98  1  0
 43 99  1  0
 44100  1  0
 45101  1  0
 46102  1  0
 48103  1  0
 48104  1  0
 49105  1  0
 49106  1  0
 50107  1  0
 50108  1  0
 51109  1  0
 52110  1  0
 53111  1  0
 54112  1  0
 57113  1  0
 58114  1  0
 61115  1  0
 62116  1  0
M  END
$$$$
