
     RDKit          3D

 18 17  0  0  0  0  0  0  0  0999 V2000
    0.0000    0.0000    0.0000 Na  0  0  0  0  0 15  0  0  0  0  0  0
    2.6495   -0.2058   -0.4671 C   0  0  0  0  0  0  0  0  0  0  0  0
    3.0789    0.8908   -0.9322 O   0  0  0  0  0  0  0  0  0  0  0  0
    2.9203   -1.3891   -0.8273 O   0  0  0  0  0  0  0  0  0  0  0  0
    1.7221   -0.0857    0.7416 C   0  0  0  0  0  0  0  0  0  0  0  0
    0.2703   -0.0031    0.3407 C   0  0  0  0  0  0  0  0  0  0  0  0
   -0.4941   -1.1675    0.1939 C   0  0  0  0  0  0  0  0  0  0  0  0
   -0.3268    1.2373    0.0834 C   0  0  0  0  0  0  0  0  0  0  0  0
   -1.6702    1.3140   -0.2878 C   0  0  0  0  0  0  0  0  0  0  0  0
   -1.8376   -1.0913   -0.1773 C   0  0  0  0  0  0  0  0  0  0  0  0
   -2.4271    0.1499   -0.4135 C   0  0  0  0  0  0  0  0  0  0  0  0
    1.8755   -0.9424    1.4102 H   0  0  0  0  0  0  0  0  0  0  0  0
    1.9966    0.7990    1.3301 H   0  0  0  0  0  0  0  0  0  0  0  0
   -0.0277   -2.1380    0.3510 H   0  0  0  0  0  0  0  0  0  0  0  0
    0.2702    2.1444    0.1542 H   0  0  0  0  0  0  0  0  0  0  0  0
   -2.1165    2.2822   -0.4922 H   0  0  0  0  0  0  0  0  0  0  0  0
   -2.4146   -2.0032   -0.2953 H   0  0  0  0  0  0  0  0  0  0  0  0
   -3.4688    0.2086   -0.7124 H   0  0  0  0  0  0  0  0  0  0  0  0
  3  2  1  0
  4  2  2  0
  5  2  1  0
  6  5  1  0
  7  6  2  0
  8  6  1  0
  9  8  2  0
 10  7  1  0
 11 10  2  0
 11  9  1  0
  5 12  1  0
  5 13  1  0
  7 14  1  0
  8 15  1  0
  9 16  1  0
 10 17  1  0
 11 18  1  0
M  CHG  2   1   1   3  -1
M  END
$$$$
