
     RDKit          3D

 18 17  0  0  0  0  0  0  0  0999 V2000
    0.0000    0.0000    0.0000 Na  0  0  0  0  0 15  0  0  0  0  0  0
   -2.5826    0.2572   -0.7383 C   0  0  0  0  0  0  0  0  0  0  0  0
   -2.7995   -0.4605   -1.7586 O   0  0  0  0  0  0  0  0  0  0  0  0
   -2.9733    1.4358   -0.4906 O   0  0  0  0  0  0  0  0  0  0  0  0
   -1.7898   -0.4181    0.3803 C   0  0  0  0  0  0  0  0  0  0  0  0
   -0.3048   -0.1912    0.2442 C   0  0  0  0  0  0  0  0  0  0  0  0
    0.3014    0.9233    0.8375 C   0  0  0  0  0  0  0  0  0  0  0  0
    0.4846   -1.0772   -0.4997 C   0  0  0  0  0  0  0  0  0  0  0  0
    1.8588   -0.8673   -0.6259 C   0  0  0  0  0  0  0  0  0  0  0  0
    1.6757    1.1335    0.7117 C   0  0  0  0  0  0  0  0  0  0  0  0
    2.4553    0.2355   -0.0161 C   0  0  0  0  0  0  0  0  0  0  0  0
   -2.1356   -0.0461    1.3532 H   0  0  0  0  0  0  0  0  0  0  0  0
   -2.0030   -1.4946    0.3847 H   0  0  0  0  0  0  0  0  0  0  0  0
   -0.3104    1.6395    1.3823 H   0  0  0  0  0  0  0  0  0  0  0  0
    0.0157   -1.9227   -0.9990 H   0  0  0  0  0  0  0  0  0  0  0  0
    2.4559   -1.5582   -1.2129 H   0  0  0  0  0  0  0  0  0  0  0  0
    2.1296    2.0065    1.1701 H   0  0  0  0  0  0  0  0  0  0  0  0
    3.5221    0.4046   -0.1229 H   0  0  0  0  0  0  0  0  0  0  0  0
  3  2  1  0
  4  2  2  0
  5  2  1  0
  6  5  1  0
  7  6  2  0
  8  6  1  0
  9  8  2  0
 10  7  1  0
 11 10  2  0
 11  9  1  0
  5 12  1  0
  5 13  1  0
  7 14  1  0
  8 15  1  0
  9 16  1  0
 10 17  1  0
 11 18  1  0
M  CHG  2   1   1   3  -1
M  END
$$$$
