
     RDKit          3D

 18 17  0  0  0  0  0  0  0  0999 V2000
    0.0000    0.0000    0.0000 Na  0  0  0  0  0 15  0  0  0  0  0  0
   -2.5548   -0.0174    0.7558 C   0  0  0  0  0  0  0  0  0  0  0  0
   -3.1501    1.0137    0.3250 O   0  0  0  0  0  0  0  0  0  0  0  0
   -2.6030   -0.5488    1.9040 O   0  0  0  0  0  0  0  0  0  0  0  0
   -1.7074   -0.7623   -0.2750 C   0  0  0  0  0  0  0  0  0  0  0  0
   -0.2780   -0.2808   -0.2938 C   0  0  0  0  0  0  0  0  0  0  0  0
    0.1042    0.7792   -1.1255 C   0  0  0  0  0  0  0  0  0  0  0  0
    0.6813   -0.8691    0.5399 C   0  0  0  0  0  0  0  0  0  0  0  0
    2.0041   -0.4235    0.5229 C   0  0  0  0  0  0  0  0  0  0  0  0
    1.4269    1.2251   -1.1429 C   0  0  0  0  0  0  0  0  0  0  0  0
    2.3780    0.6205   -0.3222 C   0  0  0  0  0  0  0  0  0  0  0  0
   -2.1526   -0.6457   -1.2714 H   0  0  0  0  0  0  0  0  0  0  0  0
   -1.7347   -1.8392   -0.0653 H   0  0  0  0  0  0  0  0  0  0  0  0
   -0.6430    1.2699   -1.7459 H   0  0  0  0  0  0  0  0  0  0  0  0
    0.3846   -1.6652    1.2198 H   0  0  0  0  0  0  0  0  0  0  0  0
    2.7343   -0.8838    1.1811 H   0  0  0  0  0  0  0  0  0  0  0  0
    1.7059    2.0534   -1.7867 H   0  0  0  0  0  0  0  0  0  0  0  0
    3.4041    0.9741   -0.3278 H   0  0  0  0  0  0  0  0  0  0  0  0
  3  2  1  0
  4  2  2  0
  5  2  1  0
  6  5  1  0
  7  6  2  0
  8  6  1  0
  9  8  2  0
 10  7  1  0
 11 10  2  0
 11  9  1  0
  5 12  1  0
  5 13  1  0
  7 14  1  0
  8 15  1  0
  9 16  1  0
 10 17  1  0
 11 18  1  0
M  CHG  2   1   1   3  -1
M  END
$$$$
