
     RDKit          3D

 18 17  0  0  0  0  0  0  0  0999 V2000
    0.0000    0.0000    0.0000 Na  0  0  0  0  0 15  0  0  0  0  0  0
    2.6632    0.2988   -0.3145 C   0  0  0  0  0  0  0  0  0  0  0  0
    2.9582    1.5278   -0.2386 O   0  0  0  0  0  0  0  0  0  0  0  0
    3.0904   -0.5789   -1.1210 O   0  0  0  0  0  0  0  0  0  0  0  0
    1.7033   -0.2113    0.7597 C   0  0  0  0  0  0  0  0  0  0  0  0
    0.2614   -0.1202    0.3261 C   0  0  0  0  0  0  0  0  0  0  0  0
   -0.4840    1.0390    0.5753 C   0  0  0  0  0  0  0  0  0  0  0  0
   -0.3446   -1.1831   -0.3555 C   0  0  0  0  0  0  0  0  0  0  0  0
   -1.6789   -1.0989   -0.7570 C   0  0  0  0  0  0  0  0  0  0  0  0
   -1.8183    1.1237    0.1740 C   0  0  0  0  0  0  0  0  0  0  0  0
   -2.4173    0.0528   -0.4880 C   0  0  0  0  0  0  0  0  0  0  0  0
    1.8502    0.3588    1.6858 H   0  0  0  0  0  0  0  0  0  0  0  0
    1.9512   -1.2503    1.0118 H   0  0  0  0  0  0  0  0  0  0  0  0
   -0.0095    1.8858    1.0670 H   0  0  0  0  0  0  0  0  0  0  0  0
    0.2387   -2.0711   -0.5904 H   0  0  0  0  0  0  0  0  0  0  0  0
   -2.1320   -1.9276   -1.2919 H   0  0  0  0  0  0  0  0  0  0  0  0
   -2.3804    2.0321    0.3666 H   0  0  0  0  0  0  0  0  0  0  0  0
   -3.4516    0.1225   -0.8094 H   0  0  0  0  0  0  0  0  0  0  0  0
  3  2  1  0
  4  2  2  0
  5  2  1  0
  6  5  1  0
  7  6  2  0
  8  6  1  0
  9  8  2  0
 10  7  1  0
 11 10  2  0
 11  9  1  0
  5 12  1  0
  5 13  1  0
  7 14  1  0
  8 15  1  0
  9 16  1  0
 10 17  1  0
 11 18  1  0
M  CHG  2   1   1   3  -1
M  END
$$$$
