
     RDKit          3D

 18 17  0  0  0  0  0  0  0  0999 V2000
    0.0000    0.0000    0.0000 Na  0  0  0  0  0 15  0  0  0  0  0  0
   -2.5019   -0.2133    0.9878 C   0  0  0  0  0  0  0  0  0  0  0  0
   -2.4953   -1.0037    1.9769 O   0  0  0  0  0  0  0  0  0  0  0  0
   -3.1014    0.8936    0.8514 O   0  0  0  0  0  0  0  0  0  0  0  0
   -1.7276   -0.6937   -0.2390 C   0  0  0  0  0  0  0  0  0  0  0  0
   -0.2929   -0.2280   -0.2266 C   0  0  0  0  0  0  0  0  0  0  0  0
    0.0614    0.9985   -0.8025 C   0  0  0  0  0  0  0  0  0  0  0  0
    0.7008   -1.0028    0.3847 C   0  0  0  0  0  0  0  0  0  0  0  0
    2.0285   -0.5720    0.3965 C   0  0  0  0  0  0  0  0  0  0  0  0
    1.3890    1.4298   -0.7909 C   0  0  0  0  0  0  0  0  0  0  0  0
    2.3735    0.6422   -0.1956 C   0  0  0  0  0  0  0  0  0  0  0  0
   -2.2258   -0.3402   -1.1508 H   0  0  0  0  0  0  0  0  0  0  0  0
   -1.7628   -1.7894   -0.2911 H   0  0  0  0  0  0  0  0  0  0  0  0
   -0.7103    1.6266   -1.2428 H   0  0  0  0  0  0  0  0  0  0  0  0
    0.4282   -1.9371    0.8713 H   0  0  0  0  0  0  0  0  0  0  0  0
    2.7859   -1.1796    0.8817 H   0  0  0  0  0  0  0  0  0  0  0  0
    1.6466    2.3867   -1.2338 H   0  0  0  0  0  0  0  0  0  0  0  0
    3.4040    0.9823   -0.1772 H   0  0  0  0  0  0  0  0  0  0  0  0
  3  2  1  0
  4  2  2  0
  5  2  1  0
  6  5  1  0
  7  6  2  0
  8  6  1  0
  9  8  2  0
 10  7  1  0
 11 10  2  0
 11  9  1  0
  5 12  1  0
  5 13  1  0
  7 14  1  0
  8 15  1  0
  9 16  1  0
 10 17  1  0
 11 18  1  0
M  CHG  2   1   1   3  -1
M  END
$$$$
