
     RDKit          3D

 81 82  0  0  0  0  0  0  0  0999 V2000
   -0.1187    0.3799    0.0000 O   0  0  0  0  0  0  0  0  0  0  0  0
   -2.2923   -0.7182    1.1936 N   0  0  0  0  0  0  0  0  0  0  0  0
   -1.4649    0.4563    0.8496 C   0  0  1  0  0  0  0  0  0  0  0  0
   -1.2098   -1.5403    1.3568 C   0  0  0  0  0  0  0  0  0  0  0  0
   -0.2237   -0.3517    1.3079 C   0  0  1  0  0  0  0  0  0  0  0  0
   -3.3545   -1.1006    0.2638 C   0  0  2  0  0  0  0  0  0  0  0  0
   -1.7581    0.6576   -0.9583 S   0  0  0  0  0  0  0  0  0  0  0  0
   -3.4931    0.0182   -0.7877 C   0  0  0  0  0  0  0  0  0  0  0  0
    0.9085   -0.4749    0.3510 N   0  0  0  0  0  0  0  0  0  0  0  0
   -4.6402   -1.3831    1.0278 C   0  0  0  0  0  0  0  0  0  0  0  0
    1.6814    0.6236    0.0378 C   0  0  0  0  0  0  0  0  0  0  0  0
   -1.1246   -2.7468    1.3718 O   0  0  0  0  0  0  0  0  0  0  0  0
   -4.9643   -0.9430    2.1193 O   0  0  0  0  0  0  0  0  0  0  0  0
    1.5120    1.7127    0.5819 O   0  0  0  0  0  0  0  0  0  0  0  0
    2.7206    0.3831   -1.0407 C   0  0  0  0  0  0  0  0  0  0  0  0
   -5.4830   -2.1865    0.3445 O   0  0  0  0  0  0  0  0  0  0  0  0
   -3.9484   -0.5256   -2.1441 C   0  0  0  0  0  0  0  0  0  0  0  0
   -4.3890    1.1892   -0.3619 C   0  0  0  0  0  0  0  0  0  0  0  0
    4.1338    0.5640   -0.5488 C   0  0  0  0  0  0  0  0  0  0  0  0
    4.8604   -0.5230   -0.0431 C   0  0  0  0  0  0  0  0  0  0  0  0
    4.7355    1.8308   -0.5759 C   0  0  0  0  0  0  0  0  0  0  0  0
    6.0472    2.0017   -0.1295 C   0  0  0  0  0  0  0  0  0  0  0  0
    6.1722   -0.3496    0.4037 C   0  0  0  0  0  0  0  0  0  0  0  0
    6.7664    0.9114    0.3565 C   0  0  0  0  0  0  0  0  0  0  0  0
    1.4216    0.5468    0.7526 C   0  0  0  0  0  0  0  0  0  0  0  0
    2.8150    0.1066    0.4698 C   0  0  0  0  0  0  0  0  0  0  0  0
    0.9785    0.7010    1.8796 O   0  0  0  0  0  0  0  0  0  0  0  0
    3.6502   -0.1888    1.5534 C   0  0  0  0  0  0  0  0  0  0  0  0
    3.3077   -0.0407   -0.8326 C   0  0  0  0  0  0  0  0  0  0  0  0
    0.7356    0.7353   -0.4022 O   0  0  0  0  0  0  0  0  0  0  0  0
    5.4779   -0.7104    0.0390 C   0  0  0  0  0  0  0  0  0  0  0  0
   -2.9916    0.2893    0.0105 N   0  0  0  0  0  0  0  0  0  0  0  0
    6.7476   -1.2548   -0.1754 N   0  0  0  0  0  0  0  0  0  0  0  0
    4.9647   -0.6141    1.3348 C   0  0  0  0  0  0  0  0  0  0  0  0
    4.6247   -0.4668   -1.0408 C   0  0  0  0  0  0  0  0  0  0  0  0
   -0.6302    1.1680   -0.2471 C   0  0  0  0  0  0  0  0  0  0  0  0
   -1.5449   -0.0295    0.0647 C   0  0  0  0  0  0  0  0  0  0  0  0
   -3.3814    1.0942    1.1872 C   0  0  0  0  0  0  0  0  0  0  0  0
   -3.7898   -0.9533   -0.0533 C   0  0  0  0  0  0  0  0  0  0  0  0
   -4.7112    1.8156    0.9843 C   0  0  0  0  0  0  0  0  0  0  0  0
   -3.7585   -1.5987   -1.4367 C   0  0  0  0  0  0  0  0  0  0  0  0
    0.7878    0.0374    0.0000 H   0  0  0  0  0  0  0  0  0  0  0  0
   -0.6692   -0.4174    0.0000 H   0  0  0  0  0  0  0  0  0  0  0  0
   -1.7065    1.3332    1.4575 H   0  0  0  0  0  0  0  0  0  0  0  0
    0.1375   -0.0844    2.3086 H   0  0  0  0  0  0  0  0  0  0  0  0
   -3.0500   -2.0432   -0.2111 H   0  0  0  0  0  0  0  0  0  0  0  0
    1.0449   -1.3437   -0.1557 H   0  0  0  0  0  0  0  0  0  0  0  0
    2.6071   -0.6176   -1.4737 H   0  0  0  0  0  0  0  0  0  0  0  0
    2.5159    1.0825   -1.8607 H   0  0  0  0  0  0  0  0  0  0  0  0
   -6.2425   -2.3212    0.9541 H   0  0  0  0  0  0  0  0  0  0  0  0
   -3.9623    0.2585   -2.9103 H   0  0  0  0  0  0  0  0  0  0  0  0
   -4.9647   -0.9332   -2.0821 H   0  0  0  0  0  0  0  0  0  0  0  0
   -3.2992   -1.3349   -2.4975 H   0  0  0  0  0  0  0  0  0  0  0  0
   -5.4384    0.8802   -0.3030 H   0  0  0  0  0  0  0  0  0  0  0  0
   -4.3440    2.0106   -1.0868 H   0  0  0  0  0  0  0  0  0  0  0  0
   -4.1135    1.5909    0.6195 H   0  0  0  0  0  0  0  0  0  0  0  0
    4.4143   -1.5140    0.0035 H   0  0  0  0  0  0  0  0  0  0  0  0
    4.1832    2.6951   -0.9413 H   0  0  0  0  0  0  0  0  0  0  0  0
    6.5064    2.9874   -0.1588 H   0  0  0  0  0  0  0  0  0  0  0  0
    6.7321   -1.1985    0.7885 H   0  0  0  0  0  0  0  0  0  0  0  0
    7.7877    1.0471    0.7046 H   0  0  0  0  0  0  0  0  0  0  0  0
    3.2788   -0.1058    2.5733 H   0  0  0  0  0  0  0  0  0  0  0  0
    2.6777    0.1577   -1.6961 H   0  0  0  0  0  0  0  0  0  0  0  0
    7.1590   -1.0183   -1.0724 H   0  0  0  0  0  0  0  0  0  0  0  0
    7.3948   -1.1242    0.5959 H   0  0  0  0  0  0  0  0  0  0  0  0
    5.5841   -0.8729    2.1901 H   0  0  0  0  0  0  0  0  0  0  0  0
    4.9791   -0.6082   -2.0591 H   0  0  0  0  0  0  0  0  0  0  0  0
   -0.9199    1.6200   -1.2019 H   0  0  0  0  0  0  0  0  0  0  0  0
   -0.6869    1.9566    0.5102 H   0  0  0  0  0  0  0  0  0  0  0  0
   -1.2797   -0.4735    1.0326 H   0  0  0  0  0  0  0  0  0  0  0  0
   -1.2971   -0.7952   -0.6786 H   0  0  0  0  0  0  0  0  0  0  0  0
   -2.6422    1.8796    1.3759 H   0  0  0  0  0  0  0  0  0  0  0  0
   -3.4177    0.4789    2.0953 H   0  0  0  0  0  0  0  0  0  0  0  0
   -3.4611   -1.6745    0.7069 H   0  0  0  0  0  0  0  0  0  0  0  0
   -4.8439   -0.7426    0.1549 H   0  0  0  0  0  0  0  0  0  0  0  0
   -5.5588    1.1265    0.9421 H   0  0  0  0  0  0  0  0  0  0  0  0
   -4.6984    2.4093    0.0641 H   0  0  0  0  0  0  0  0  0  0  0  0
   -4.8926    2.5012    1.8192 H   0  0  0  0  0  0  0  0  0  0  0  0
   -4.0810   -0.8892   -2.2070 H   0  0  0  0  0  0  0  0  0  0  0  0
   -2.7659   -1.9716   -1.7039 H   0  0  0  0  0  0  0  0  0  0  0  0
   -4.4443   -2.4533   -1.4630 H   0  0  0  0  0  0  0  0  0  0  0  0
  3  2  1  0
  4  2  1  0
  5  4  1  0
  6  2  1  0
  3  7  1  0
  8  6  1  0
  5  9  1  0
  6 10  1  0
 11  9  1  0
 12  4  2  0
 13 10  2  0
 14 11  2  0
 15 11  1  0
 16 10  1  0
 17  8  1  0
 18  8  1  0
 19 15  1  0
 20 19  2  0
 21 19  1  0
 22 21  2  0
 23 20  1  0
 24 22  1  0
  7  8  1  0
  5  3  1  0
 24 23  2  0
 26 25  1  0
 27 25  2  0
 28 26  2  0
 29 26  1  0
 30 25  1  0
 31 35  1  0
 32 37  1  0
 33 31  1  0
 34 28  1  0
 35 29  2  0
 36 30  1  0
 37 36  1  0
 38 32  1  0
 39 32  1  0
 40 38  1  0
 41 39  1  0
 31 34  2  0
  1 42  1  0
  1 43  1  0
  3 44  1  1
  5 45  1  1
  6 46  1  6
  9 47  1  0
 15 48  1  0
 15 49  1  0
 16 50  1  0
 17 51  1  0
 17 52  1  0
 17 53  1  0
 18 54  1  0
 18 55  1  0
 18 56  1  0
 20 57  1  0
 21 58  1  0
 22 59  1  0
 23 60  1  0
 24 61  1  0
 28 62  1  0
 29 63  1  0
 33 64  1  0
 33 65  1  0
 34 66  1  0
 35 67  1  0
 36 68  1  0
 36 69  1  0
 37 70  1  0
 37 71  1  0
 38 72  1  0
 38 73  1  0
 39 74  1  0
 39 75  1  0
 40 76  1  0
 40 77  1  0
 40 78  1  0
 41 79  1  0
 41 80  1  0
 41 81  1  0
M  END
$$$$
