
     RDKit          3D

 81 82  0  0  0  0  0  0  0  0999 V2000
    0.0058    0.3978    0.0000 O   0  0  0  0  0  0  0  0  0  0  0  0
   -2.1899   -1.4399   -0.5415 N   0  0  0  0  0  0  0  0  0  0  0  0
   -1.6044   -1.3922    0.8075 C   0  0  1  0  0  0  0  0  0  0  0  0
   -0.9793   -1.4223   -1.1723 C   0  0  0  0  0  0  0  0  0  0  0  0
   -0.2259   -1.6819    0.1527 C   0  0  1  0  0  0  0  0  0  0  0  0
   -3.2322   -0.4695   -0.8592 C   0  0  2  0  0  0  0  0  0  0  0  0
   -1.9198    0.3160    1.4102 S   0  0  0  0  0  0  0  0  0  0  0  0
   -2.9106    0.8254   -0.0712 C   0  0  0  0  0  0  0  0  0  0  0  0
    0.8918   -0.7538    0.4590 N   0  0  0  0  0  0  0  0  0  0  0  0
   -4.6184   -1.0533   -0.5680 C   0  0  0  0  0  0  0  0  0  0  0  0
    1.5245   -0.7850    1.6815 C   0  0  0  0  0  0  0  0  0  0  0  0
   -0.6847   -1.1603   -2.3152 O   0  0  0  0  0  0  0  0  0  0  0  0
   -5.6827   -0.5457   -0.8926 O   0  0  0  0  0  0  0  0  0  0  0  0
    1.1943   -1.5724    2.5662 O   0  0  0  0  0  0  0  0  0  0  0  0
    2.5981    0.2682    1.8877 C   0  0  0  0  0  0  0  0  0  0  0  0
   -4.6226   -2.2075    0.1309 O   0  0  0  0  0  0  0  0  0  0  0  0
   -4.1274    1.6123    0.4318 C   0  0  0  0  0  0  0  0  0  0  0  0
   -2.0346    1.7765   -0.9064 C   0  0  0  0  0  0  0  0  0  0  0  0
    3.6049    0.3478    0.7649 C   0  0  0  0  0  0  0  0  0  0  0  0
    4.4897   -0.7154    0.5341 C   0  0  0  0  0  0  0  0  0  0  0  0
    3.6625    1.4755   -0.0659 C   0  0  0  0  0  0  0  0  0  0  0  0
    4.5845    1.5338   -1.1123 C   0  0  0  0  0  0  0  0  0  0  0  0
    5.4102   -0.6534   -0.5126 C   0  0  0  0  0  0  0  0  0  0  0  0
    5.4566    0.4699   -1.3359 C   0  0  0  0  0  0  0  0  0  0  0  0
    1.2841   -0.7128    0.9033 C   0  0  0  0  0  0  0  0  0  0  0  0
    2.6724   -0.5450    0.3942 C   0  0  0  0  0  0  0  0  0  0  0  0
    1.0056   -1.3291    1.9198 O   0  0  0  0  0  0  0  0  0  0  0  0
    2.9732    0.2232   -0.7368 C   0  0  0  0  0  0  0  0  0  0  0  0
    3.7140   -1.1648    1.0944 C   0  0  0  0  0  0  0  0  0  0  0  0
    0.3971   -0.0978    0.0829 O   0  0  0  0  0  0  0  0  0  0  0  0
    5.3346   -0.3140   -0.5046 C   0  0  0  0  0  0  0  0  0  0  0  0
   -3.3089    0.5249   -0.2896 N   0  0  0  0  0  0  0  0  0  0  0  0
    6.6645   -0.0836   -0.8660 N   0  0  0  0  0  0  0  0  0  0  0  0
    4.2991    0.3512   -1.1665 C   0  0  0  0  0  0  0  0  0  0  0  0
    5.0358   -1.0310    0.6568 C   0  0  0  0  0  0  0  0  0  0  0  0
   -0.9726   -0.2102    0.5060 C   0  0  0  0  0  0  0  0  0  0  0  0
   -1.8553    0.4977   -0.5334 C   0  0  0  0  0  0  0  0  0  0  0  0
   -3.9299   -0.8116   -0.2538 C   0  0  0  0  0  0  0  0  0  0  0  0
   -3.6929    1.2823    0.9151 C   0  0  0  0  0  0  0  0  0  0  0  0
   -3.7419   -1.6170   -1.5355 C   0  0  0  0  0  0  0  0  0  0  0  0
   -3.2709    2.7474    0.8853 C   0  0  0  0  0  0  0  0  0  0  0  0
    0.7604   -0.2101    0.0000 H   0  0  0  0  0  0  0  0  0  0  0  0
   -0.7662   -0.1878    0.0000 H   0  0  0  0  0  0  0  0  0  0  0  0
   -1.9789   -2.1834    1.4631 H   0  0  0  0  0  0  0  0  0  0  0  0
    0.0988   -2.7269    0.2349 H   0  0  0  0  0  0  0  0  0  0  0  0
   -3.2051   -0.2903   -1.9419 H   0  0  0  0  0  0  0  0  0  0  0  0
    1.2685   -0.1570   -0.2715 H   0  0  0  0  0  0  0  0  0  0  0  0
    2.0955    1.2325    2.0310 H   0  0  0  0  0  0  0  0  0  0  0  0
    3.1302    0.0471    2.8214 H   0  0  0  0  0  0  0  0  0  0  0  0
   -5.5720   -2.4341    0.2225 H   0  0  0  0  0  0  0  0  0  0  0  0
   -3.8270    2.5234    0.9639 H   0  0  0  0  0  0  0  0  0  0  0  0
   -4.7594    1.9286   -0.4061 H   0  0  0  0  0  0  0  0  0  0  0  0
   -4.7464    1.0281    1.1221 H   0  0  0  0  0  0  0  0  0  0  0  0
   -1.0943    1.3172   -1.2271 H   0  0  0  0  0  0  0  0  0  0  0  0
   -1.7800    2.6868   -0.3496 H   0  0  0  0  0  0  0  0  0  0  0  0
   -2.5683    2.0897   -1.8115 H   0  0  0  0  0  0  0  0  0  0  0  0
    4.4665   -1.6000    1.1690 H   0  0  0  0  0  0  0  0  0  0  0  0
    2.9946    2.3194    0.0956 H   0  0  0  0  0  0  0  0  0  0  0  0
    4.6261    2.4117   -1.7526 H   0  0  0  0  0  0  0  0  0  0  0  0
    6.0920   -1.4829   -0.6858 H   0  0  0  0  0  0  0  0  0  0  0  0
    6.1749    0.5170   -2.1505 H   0  0  0  0  0  0  0  0  0  0  0  0
    2.1918    0.7418   -1.2867 H   0  0  0  0  0  0  0  0  0  0  0  0
    3.5053   -1.7431    1.9925 H   0  0  0  0  0  0  0  0  0  0  0  0
    6.7946    0.1673   -1.8414 H   0  0  0  0  0  0  0  0  0  0  0  0
    7.3088   -0.8072   -0.5636 H   0  0  0  0  0  0  0  0  0  0  0  0
    4.5157    0.9790   -2.0278 H   0  0  0  0  0  0  0  0  0  0  0  0
    5.8317   -1.4940    1.2351 H   0  0  0  0  0  0  0  0  0  0  0  0
   -1.2381   -1.2706    0.5759 H   0  0  0  0  0  0  0  0  0  0  0  0
   -1.0769    0.2634    1.4880 H   0  0  0  0  0  0  0  0  0  0  0  0
   -1.6593    0.0538   -1.5179 H   0  0  0  0  0  0  0  0  0  0  0  0
   -1.4858    1.5223   -0.6666 H   0  0  0  0  0  0  0  0  0  0  0  0
   -5.0120   -0.6915   -0.1154 H   0  0  0  0  0  0  0  0  0  0  0  0
   -3.5699   -1.3958    0.6015 H   0  0  0  0  0  0  0  0  0  0  0  0
   -4.7873    1.2743    0.9996 H   0  0  0  0  0  0  0  0  0  0  0  0
   -3.3073    0.8076    1.8252 H   0  0  0  0  0  0  0  0  0  0  0  0
   -4.0424   -1.0377   -2.4145 H   0  0  0  0  0  0  0  0  0  0  0  0
   -2.7051   -1.9388   -1.6654 H   0  0  0  0  0  0  0  0  0  0  0  0
   -4.3605   -2.5199   -1.5008 H   0  0  0  0  0  0  0  0  0  0  0  0
   -2.1868    2.8615    0.9771 H   0  0  0  0  0  0  0  0  0  0  0  0
   -3.7266    3.2832    1.7247 H   0  0  0  0  0  0  0  0  0  0  0  0
   -3.5979    3.2347   -0.0389 H   0  0  0  0  0  0  0  0  0  0  0  0
  3  2  1  0
  4  2  1  0
  5  4  1  0
  6  2  1  0
  3  7  1  0
  8  6  1  0
  5  9  1  0
  6 10  1  0
 11  9  1  0
 12  4  2  0
 13 10  2  0
 14 11  2  0
 15 11  1  0
 16 10  1  0
 17  8  1  0
 18  8  1  0
 19 15  1  0
 20 19  2  0
 21 19  1  0
 22 21  2  0
 23 20  1  0
 24 22  1  0
  7  8  1  0
  5  3  1  0
 24 23  2  0
 26 25  1  0
 27 25  2  0
 28 26  2  0
 29 26  1  0
 30 25  1  0
 31 35  1  0
 32 37  1  0
 33 31  1  0
 34 28  1  0
 35 29  2  0
 36 30  1  0
 37 36  1  0
 38 32  1  0
 39 32  1  0
 40 38  1  0
 41 39  1  0
 31 34  2  0
  1 42  1  0
  1 43  1  0
  3 44  1  1
  5 45  1  6
  6 46  1  6
  9 47  1  0
 15 48  1  0
 15 49  1  0
 16 50  1  0
 17 51  1  0
 17 52  1  0
 17 53  1  0
 18 54  1  0
 18 55  1  0
 18 56  1  0
 20 57  1  0
 21 58  1  0
 22 59  1  0
 23 60  1  0
 24 61  1  0
 28 62  1  0
 29 63  1  0
 33 64  1  0
 33 65  1  0
 34 66  1  0
 35 67  1  0
 36 68  1  0
 36 69  1  0
 37 70  1  0
 37 71  1  0
 38 72  1  0
 38 73  1  0
 39 74  1  0
 39 75  1  0
 40 76  1  0
 40 77  1  0
 40 78  1  0
 41 79  1  0
 41 80  1  0
 41 81  1  0
M  END
$$$$
