
     RDKit          3D

 41 42  0  0  0  0  0  0  0  0999 V2000
    0.0000    0.0000    0.0000 O   0  0  0  0  0  0  0  0  0  0  0  0
   -2.3357    0.5053    0.6893 N   0  0  0  0  0  0  0  0  0  0  0  0
   -1.9152    0.8505   -0.6591 C   0  0  1  0  0  0  0  0  0  0  0  0
   -1.0222    0.8278    1.1324 C   0  0  0  0  0  0  0  0  0  0  0  0
   -0.4886    0.9126   -0.2665 C   0  0  1  0  0  0  0  0  0  0  0  0
   -3.7277    0.0968    0.6309 C   0  0  2  0  0  0  0  0  0  0  0  0
   -2.4531   -0.6916   -1.4667 S   0  0  0  0  0  0  0  0  0  0  0  0
   -3.8092   -1.0872   -0.3156 C   0  0  0  0  0  0  0  0  0  0  0  0
    0.3583   -0.2036   -0.6322 N   0  0  0  0  0  0  0  0  0  0  0  0
   -4.4944    1.2476    0.0840 C   0  0  0  0  0  0  0  0  0  0  0  0
    1.7448   -0.0460   -0.3600 C   0  0  0  0  0  0  0  0  0  0  0  0
   -0.4668    0.9917    2.2605 O   0  0  0  0  0  0  0  0  0  0  0  0
   -3.9306    2.3283   -0.2347 O   0  0  0  0  0  0  0  0  0  0  0  0
    2.1884    1.0249    0.1748 O   0  0  0  0  0  0  0  0  0  0  0  0
    2.6480   -1.1667   -0.7194 C   0  0  0  0  0  0  0  0  0  0  0  0
   -5.8659    1.0799   -0.0614 O   0  0  0  0  0  0  0  0  0  0  0  0
   -5.1078   -1.0603   -1.1082 C   0  0  0  0  0  0  0  0  0  0  0  0
   -3.5807   -2.4002    0.3768 C   0  0  0  0  0  0  0  0  0  0  0  0
    4.0597   -0.8493   -0.3734 C   0  0  0  0  0  0  0  0  0  0  0  0
    4.5941   -1.1600    0.8572 C   0  0  0  0  0  0  0  0  0  0  0  0
    4.8408   -0.2195   -1.3416 C   0  0  0  0  0  0  0  0  0  0  0  0
    6.1413    0.0773   -1.0343 C   0  0  0  0  0  0  0  0  0  0  0  0
    5.9078   -0.8431    1.1241 C   0  0  0  0  0  0  0  0  0  0  0  0
    6.7148   -0.2154    0.1826 C   0  0  0  0  0  0  0  0  0  0  0  0
    0.4165   -0.2009   -0.4886 C   0  0  0  0  0  0  0  0  0  0  0  0
    1.8542    0.0383   -0.5099 C   0  0  0  0  0  0  0  0  0  0  0  0
    0.0234   -1.4096   -0.3728 O   0  0  0  0  0  0  0  0  0  0  0  0
    2.7019   -1.0506   -0.4129 C   0  0  0  0  0  0  0  0  0  0  0  0
    2.3560    1.3211   -0.6037 C   0  0  0  0  0  0  0  0  0  0  0  0
   -0.4854    0.8565   -0.5908 O   0  0  0  0  0  0  0  0  0  0  0  0
    4.5864    0.3662   -0.4971 C   0  0  0  0  0  0  0  0  0  0  0  0
   -3.5887   -0.4364    0.8326 N   0  0  0  0  0  0  0  0  0  0  0  0
    5.9963    0.5588   -0.4895 N   0  0  0  0  0  0  0  0  0  0  0  0
    4.0763   -0.9200   -0.4036 C   0  0  0  0  0  0  0  0  0  0  0  0
    3.7297    1.4352   -0.5937 C   0  0  0  0  0  0  0  0  0  0  0  0
   -1.8885    0.5430   -0.5515 C   0  0  0  0  0  0  0  0  0  0  0  0
   -2.1923   -0.1266    0.7952 C   0  0  0  0  0  0  0  0  0  0  0  0
   -3.8499   -1.4748   -0.1348 C   0  0  0  0  0  0  0  0  0  0  0  0
   -4.2911    0.8095    0.4962 C   0  0  0  0  0  0  0  0  0  0  0  0
   -3.6573   -0.9280   -1.5400 C   0  0  0  0  0  0  0  0  0  0  0  0
   -5.7874    0.6183    0.5054 C   0  0  0  0  0  0  0  0  0  0  0  0
  3  2  1  0
  4  2  1  0
  5  4  1  0
  6  2  1  0
  3  7  1  6
  8  6  1  0
  5  9  1  6
  6 10  1  6
 11  9  1  0
 12  4  2  0
 13 10  2  0
 14 11  2  0
 15 11  1  0
 16 10  1  0
 17  8  1  0
 18  8  1  0
 19 15  1  0
 20 19  2  0
 21 19  1  0
 22 21  2  0
 23 20  1  0
 24 22  1  0
  7  8  1  0
  5  3  1  0
 24 23  2  0
 26 25  1  0
 27 25  2  0
 28 26  2  0
 29 26  1  0
 30 25  1  0
 31 35  1  0
 32 37  1  0
 33 31  1  0
 34 28  1  0
 35 29  2  0
 36 30  1  0
 37 36  1  0
 38 32  1  0
 39 32  1  0
 40 38  1  0
 41 39  1  0
 31 34  2  0
M  END
