
     RDKit          3D

 41 43  0  0  0  0  0  0  0  0999 V2000
   -0.0330   -0.2982   -0.0271 C   0  0  0  0  0  0  0  0  0  0  0  0
   -0.9522   -1.4947    0.1230 C   0  0  0  0  0  0  0  0  0  0  0  0
   -0.7563    0.8428   -0.7175 C   0  0  0  0  0  0  0  0  0  0  0  0
   -2.6522   -0.2209    1.5450 C   0  0  0  0  0  0  0  0  0  0  0  0
   -2.5329    1.0375    1.1056 C   0  0  0  0  0  0  0  0  0  0  0  0
   -2.1678   -1.4370    0.8536 C   0  0  0  0  0  0  0  0  0  0  0  0
   -1.9099    1.4579   -0.1684 C   0  0  0  0  0  0  0  0  0  0  0  0
    3.6322   -0.0706    0.8156 N   0  0  0  0  0  0  0  0  0  0  0  0
    0.6264    0.1003    1.3180 C   0  0  0  0  0  0  0  0  0  0  0  0
   -0.5678   -2.7190   -0.4631 C   0  0  0  0  0  0  0  0  0  0  0  0
   -0.2423    1.3267   -1.9385 C   0  0  0  0  0  0  0  0  0  0  0  0
   -2.9383   -2.6043    0.9993 C   0  0  0  0  0  0  0  0  0  0  0  0
   -2.4799    2.5620   -0.8266 C   0  0  0  0  0  0  0  0  0  0  0  0
    2.8287    1.0575    0.3262 C   0  0  0  0  0  0  0  0  0  0  0  0
    4.9401   -0.0856    0.1582 C   0  0  0  0  0  0  0  0  0  0  0  0
    1.6008    1.2924    1.2204 C   0  0  0  0  0  0  0  0  0  0  0  0
   -1.3585   -3.8594   -0.3241 C   0  0  0  0  0  0  0  0  0  0  0  0
   -0.8366    2.4089   -2.5869 C   0  0  0  0  0  0  0  0  0  0  0  0
   -1.9501    3.0297   -2.0287 C   0  0  0  0  0  0  0  0  0  0  0  0
   -2.5404   -3.8030    0.4085 C   0  0  0  0  0  0  0  0  0  0  0  0
    0.8086   -0.6149   -0.6800 H   0  0  0  0  0  0  0  0  0  0  0  0
   -3.2304   -0.3678    2.4503 H   0  0  0  0  0  0  0  0  0  0  0  0
   -3.0253    1.8067    1.6899 H   0  0  0  0  0  0  0  0  0  0  0  0
    3.1481   -0.9574    0.5419 H   0  0  0  0  0  0  0  0  0  0  0  0
   -0.1412    0.3655    2.0702 H   0  0  0  0  0  0  0  0  0  0  0  0
    1.1608   -0.7794    1.7361 H   0  0  0  0  0  0  0  0  0  0  0  0
    0.3534   -2.7984   -1.0271 H   0  0  0  0  0  0  0  0  0  0  0  0
    0.6296    0.8718   -2.3915 H   0  0  0  0  0  0  0  0  0  0  0  0
   -3.8606   -2.5854    1.5679 H   0  0  0  0  0  0  0  0  0  0  0  0
   -3.3500    3.0582   -0.4131 H   0  0  0  0  0  0  0  0  0  0  0  0
    2.5226    0.8924   -0.7290 H   0  0  0  0  0  0  0  0  0  0  0  0
    3.4322    1.9929    0.3503 H   0  0  0  0  0  0  0  0  0  0  0  0
    4.8287   -0.1370   -0.9477 H   0  0  0  0  0  0  0  0  0  0  0  0
    5.5122   -0.9752    0.4968 H   0  0  0  0  0  0  0  0  0  0  0  0
    5.5214    0.8201    0.4352 H   0  0  0  0  0  0  0  0  0  0  0  0
    1.0540    2.1874    0.8528 H   0  0  0  0  0  0  0  0  0  0  0  0
    1.9577    1.5343    2.2453 H   0  0  0  0  0  0  0  0  0  0  0  0
   -1.0492   -4.7913   -0.7797 H   0  0  0  0  0  0  0  0  0  0  0  0
   -0.4273    2.7712   -3.5212 H   0  0  0  0  0  0  0  0  0  0  0  0
   -2.4058    3.8746   -2.5289 H   0  0  0  0  0  0  0  0  0  0  0  0
   -3.1491   -4.6909    0.5222 H   0  0  0  0  0  0  0  0  0  0  0  0
  2  1  1  0
  3  1  1  0
  4  6  1  0
  5  7  1  0
  6  2  2  0
  7  3  2  0
  8 14  1  0
  9  1  1  0
 10  2  1  0
 11  3  1  0
 12  6  1  0
 13  7  1  0
 14 16  1  0
 15  8  1  0
 16  9  1  0
 17 10  2  0
 18 11  2  0
 19 18  1  0
 20 17  1  0
  5  4  2  0
 19 13  2  0
 20 12  2  0
  1 21  1  0
  4 22  1  0
  5 23  1  0
  8 24  1  0
  9 25  1  0
  9 26  1  0
 10 27  1  0
 11 28  1  0
 12 29  1  0
 13 30  1  0
 14 31  1  0
 14 32  1  0
 15 33  1  0
 15 34  1  0
 15 35  1  0
 16 36  1  0
 16 37  1  0
 17 38  1  0
 18 39  1  0
 19 40  1  0
 20 41  1  0
M  END
$$$$
