
     RDKit          3D

 41 43  0  0  0  0  0  0  0  0999 V2000
   -0.3851   -0.3661   -0.1665 C   0  0  0  0  0  0  0  0  0  0  0  0
   -1.2419   -1.5886    0.1084 C   0  0  0  0  0  0  0  0  0  0  0  0
   -1.0483    0.8263    0.5041 C   0  0  0  0  0  0  0  0  0  0  0  0
   -3.0671   -0.6313   -1.3917 C   0  0  0  0  0  0  0  0  0  0  0  0
   -2.9541    0.6916   -1.1832 C   0  0  0  0  0  0  0  0  0  0  0  0
   -2.5160   -1.6908   -0.5078 C   0  0  0  0  0  0  0  0  0  0  0  0
   -2.2675    1.3216   -0.0266 C   0  0  0  0  0  0  0  0  0  0  0  0
    4.2524    1.4715   -0.7401 N   0  0  0  0  0  0  0  0  0  0  0  0
    1.1296   -0.5583    0.1157 C   0  0  0  0  0  0  0  0  0  0  0  0
   -0.8319   -2.6067    0.9966 C   0  0  0  0  0  0  0  0  0  0  0  0
   -0.5291    1.4186    1.6763 C   0  0  0  0  0  0  0  0  0  0  0  0
   -3.2917   -2.8438   -0.3057 C   0  0  0  0  0  0  0  0  0  0  0  0
   -2.8604    2.4592    0.5446 C   0  0  0  0  0  0  0  0  0  0  0  0
    3.4656    0.3771   -0.1605 C   0  0  0  0  0  0  0  0  0  0  0  0
    5.6826    1.2217   -0.5540 C   0  0  0  0  0  0  0  0  0  0  0  0
    1.9780    0.5907   -0.4548 C   0  0  0  0  0  0  0  0  0  0  0  0
   -1.6308   -3.7319    1.2056 C   0  0  0  0  0  0  0  0  0  0  0  0
   -1.1493    2.5318    2.2458 C   0  0  0  0  0  0  0  0  0  0  0  0
   -2.3032    3.0605    1.6725 C   0  0  0  0  0  0  0  0  0  0  0  0
   -2.8515   -3.8565    0.5462 C   0  0  0  0  0  0  0  0  0  0  0  0
   -0.4280   -0.1935   -1.2658 H   0  0  0  0  0  0  0  0  0  0  0  0
   -3.6976   -0.9499   -2.2138 H   0  0  0  0  0  0  0  0  0  0  0  0
   -3.5021    1.3457   -1.8515 H   0  0  0  0  0  0  0  0  0  0  0  0
    4.0194    2.3510   -0.2211 H   0  0  0  0  0  0  0  0  0  0  0  0
    1.4590   -1.5011   -0.3751 H   0  0  0  0  0  0  0  0  0  0  0  0
    1.3299   -0.6710    1.2009 H   0  0  0  0  0  0  0  0  0  0  0  0
    0.1063   -2.5493    1.5286 H   0  0  0  0  0  0  0  0  0  0  0  0
    0.3609    1.0428    2.1567 H   0  0  0  0  0  0  0  0  0  0  0  0
   -4.2546   -2.9488   -0.7913 H   0  0  0  0  0  0  0  0  0  0  0  0
   -3.7756    2.8664    0.1316 H   0  0  0  0  0  0  0  0  0  0  0  0
    3.7819   -0.5928   -0.6063 H   0  0  0  0  0  0  0  0  0  0  0  0
    3.6222    0.3339    0.9417 H   0  0  0  0  0  0  0  0  0  0  0  0
    5.9871    0.2992   -1.0936 H   0  0  0  0  0  0  0  0  0  0  0  0
    5.9321    1.1245    0.5260 H   0  0  0  0  0  0  0  0  0  0  0  0
    6.2617    2.0711   -0.9740 H   0  0  0  0  0  0  0  0  0  0  0  0
    1.8319    0.6476   -1.5558 H   0  0  0  0  0  0  0  0  0  0  0  0
    1.6581    1.5577   -0.0123 H   0  0  0  0  0  0  0  0  0  0  0  0
   -1.2997   -4.5121    1.8790 H   0  0  0  0  0  0  0  0  0  0  0  0
   -0.7310    2.9880    3.1339 H   0  0  0  0  0  0  0  0  0  0  0  0
   -2.7774    3.9278    2.1134 H   0  0  0  0  0  0  0  0  0  0  0  0
   -3.4649   -4.7340    0.7056 H   0  0  0  0  0  0  0  0  0  0  0  0
  2  1  1  0
  3  1  1  0
  4  6  1  0
  5  7  1  0
  6  2  2  0
  7  3  2  0
  8 14  1  0
  9  1  1  0
 10  2  1  0
 11  3  1  0
 12  6  1  0
 13  7  1  0
 14 16  1  0
 15  8  1  0
 16  9  1  0
 17 10  2  0
 18 11  2  0
 19 18  1  0
 20 17  1  0
  5  4  2  0
 19 13  2  0
 20 12  2  0
  1 21  1  0
  4 22  1  0
  5 23  1  0
  8 24  1  0
  9 25  1  0
  9 26  1  0
 10 27  1  0
 11 28  1  0
 12 29  1  0
 13 30  1  0
 14 31  1  0
 14 32  1  0
 15 33  1  0
 15 34  1  0
 15 35  1  0
 16 36  1  0
 16 37  1  0
 17 38  1  0
 18 39  1  0
 19 40  1  0
 20 41  1  0
M  END
$$$$
