
     RDKit          3D

 21 22  0  0  0  0  0  0  0  0999 V2000
    0.0000    0.0000    0.0000 Cl  0  0  0  0  0  0  0  0  0  0  0  0
   -0.2808   -0.2198    1.0168 C   0  0  0  0  0  0  0  0  0  0  0  0
   -0.1117    1.1784    0.6696 C   0  0  0  0  0  0  0  0  0  0  0  0
   -1.3054   -0.9664    0.2773 C   0  0  0  0  0  0  0  0  0  0  0  0
   -0.4408    1.2180   -1.8265 C   0  0  0  0  0  0  0  0  0  0  0  0
   -1.0793    0.0537   -2.0684 C   0  0  0  0  0  0  0  0  0  0  0  0
   -0.1689    1.8471   -0.5307 C   0  0  0  0  0  0  0  0  0  0  0  0
   -1.6460   -0.8428   -1.0402 C   0  0  0  0  0  0  0  0  0  0  0  0
    4.1614   -1.8238   -0.5002 N   0  0  0  0  0  0  0  0  0  0  0  0
    0.9623   -0.9725    1.3360 C   0  0  0  0  0  0  0  0  0  0  0  0
    0.1518    1.9319    1.7919 C   0  0  0  0  0  0  0  0  0  0  0  0
   -1.9271   -1.8716    1.1464 C   0  0  0  0  0  0  0  0  0  0  0  0
    0.0298    3.2282   -0.6282 C   0  0  0  0  0  0  0  0  0  0  0  0
   -2.6449   -1.6228   -1.6017 C   0  0  0  0  0  0  0  0  0  0  0  0
    3.1812   -1.7589    0.5489 C   0  0  0  0  0  0  0  0  0  0  0  0
    4.7380   -0.5085   -0.7423 C   0  0  0  0  0  0  0  0  0  0  0  0
    1.9413   -0.9876    0.1661 C   0  0  0  0  0  0  0  0  0  0  0  0
    0.3485    3.3061    1.6908 C   0  0  0  0  0  0  0  0  0  0  0  0
   -2.9358   -2.6533    0.5635 C   0  0  0  0  0  0  0  0  0  0  0  0
   -3.2676   -2.5188   -0.7631 C   0  0  0  0  0  0  0  0  0  0  0  0
    0.2939    3.9836    0.4940 C   0  0  0  0  0  0  0  0  0  0  0  0
  3  2  1  0
  4  2  1  0
  5  7  1  0
  6  8  1  0
  7  3  2  0
  8  4  2  0
  9 15  1  0
 10  2  1  0
 11  3  1  0
 12  4  1  0
 13  7  1  0
 14  8  1  0
 15 17  1  0
 16  9  1  0
 17 10  1  0
 18 11  2  0
 19 12  2  0
 20 19  1  0
 21 18  1  0
  6  5  2  0
 20 14  2  0
 21 13  2  0
M  END
