
     RDKit          3D

 41 43  0  0  0  0  0  0  0  0999 V2000
   -0.5361   -0.4571    0.6867 C   0  0  0  0  0  0  0  0  0  0  0  0
   -1.1141    0.9356    0.5205 C   0  0  0  0  0  0  0  0  0  0  0  0
   -1.5316   -1.5054    0.2308 C   0  0  0  0  0  0  0  0  0  0  0  0
   -1.3983    0.6962   -2.0062 C   0  0  0  0  0  0  0  0  0  0  0  0
   -1.6243   -0.6137   -2.1615 C   0  0  0  0  0  0  0  0  0  0  0  0
   -1.5052    1.4545   -0.7402 C   0  0  0  0  0  0  0  0  0  0  0  0
   -2.0259   -1.5611   -1.0979 C   0  0  0  0  0  0  0  0  0  0  0  0
    4.2654    0.9786    0.5811 N   0  0  0  0  0  0  0  0  0  0  0  0
    0.8481   -0.6354    0.0193 C   0  0  0  0  0  0  0  0  0  0  0  0
   -1.2325    1.7557    1.6616 C   0  0  0  0  0  0  0  0  0  0  0  0
   -1.9580   -2.4796    1.1575 C   0  0  0  0  0  0  0  0  0  0  0  0
   -1.9652    2.7806   -0.8250 C   0  0  0  0  0  0  0  0  0  0  0  0
   -2.8981   -2.6016   -1.4641 C   0  0  0  0  0  0  0  0  0  0  0  0
    3.2829    0.0562    0.0009 C   0  0  0  0  0  0  0  0  0  0  0  0
    5.5586    0.8288   -0.0880 C   0  0  0  0  0  0  0  0  0  0  0  0
    1.9070    0.2972    0.6283 C   0  0  0  0  0  0  0  0  0  0  0  0
   -1.7121    3.0612    1.5584 C   0  0  0  0  0  0  0  0  0  0  0  0
   -2.8414   -3.4903    0.7786 C   0  0  0  0  0  0  0  0  0  0  0  0
   -3.3079   -3.5534   -0.5311 C   0  0  0  0  0  0  0  0  0  0  0  0
   -2.0741    3.5744    0.3163 C   0  0  0  0  0  0  0  0  0  0  0  0
   -0.3518   -0.6235    1.7725 H   0  0  0  0  0  0  0  0  0  0  0  0
   -1.2085    1.2681   -2.9075 H   0  0  0  0  0  0  0  0  0  0  0  0
   -1.5994   -0.9953   -3.1760 H   0  0  0  0  0  0  0  0  0  0  0  0
    4.4024    0.7188    1.5864 H   0  0  0  0  0  0  0  0  0  0  0  0
    0.8000   -0.4579   -1.0730 H   0  0  0  0  0  0  0  0  0  0  0  0
    1.1760   -1.6884    0.1675 H   0  0  0  0  0  0  0  0  0  0  0  0
   -0.9425    1.3896    2.6387 H   0  0  0  0  0  0  0  0  0  0  0  0
   -1.6012   -2.4655    2.1799 H   0  0  0  0  0  0  0  0  0  0  0  0
   -2.2518    3.2018   -1.7814 H   0  0  0  0  0  0  0  0  0  0  0  0
   -3.2730   -2.6719   -2.4784 H   0  0  0  0  0  0  0  0  0  0  0  0
    3.2084    0.2256   -1.0971 H   0  0  0  0  0  0  0  0  0  0  0  0
    3.5932   -0.9985    0.1813 H   0  0  0  0  0  0  0  0  0  0  0  0
    5.4718    1.1014   -1.1619 H   0  0  0  0  0  0  0  0  0  0  0  0
    6.2963    1.5138    0.3806 H   0  0  0  0  0  0  0  0  0  0  0  0
    5.9363   -0.2136    0.0053 H   0  0  0  0  0  0  0  0  0  0  0  0
    1.6156    1.3564    0.4566 H   0  0  0  0  0  0  0  0  0  0  0  0
    1.9697    0.1220    1.7247 H   0  0  0  0  0  0  0  0  0  0  0  0
   -1.7947    3.6790    2.4433 H   0  0  0  0  0  0  0  0  0  0  0  0
   -3.1584   -4.2310    1.5015 H   0  0  0  0  0  0  0  0  0  0  0  0
   -3.9871   -4.3430   -0.8258 H   0  0  0  0  0  0  0  0  0  0  0  0
   -2.4385    4.5905    0.2364 H   0  0  0  0  0  0  0  0  0  0  0  0
  2  1  1  0
  3  1  1  0
  4  6  1  0
  5  7  1  0
  6  2  2  0
  7  3  2  0
  8 14  1  0
  9  1  1  0
 10  2  1  0
 11  3  1  0
 12  6  1  0
 13  7  1  0
 14 16  1  0
 15  8  1  0
 16  9  1  0
 17 10  2  0
 18 11  2  0
 19 18  1  0
 20 17  1  0
  5  4  2  0
 19 13  2  0
 20 12  2  0
  1 21  1  0
  4 22  1  0
  5 23  1  0
  8 24  1  0
  9 25  1  0
  9 26  1  0
 10 27  1  0
 11 28  1  0
 12 29  1  0
 13 30  1  0
 14 31  1  0
 14 32  1  0
 15 33  1  0
 15 34  1  0
 15 35  1  0
 16 36  1  0
 16 37  1  0
 17 38  1  0
 18 39  1  0
 19 40  1  0
 20 41  1  0
M  END
$$$$
